1
    SWAT Dec 6 2013    VER 2012/Rev 613                                                                  0/ 0/   0      0: 0: 0

    General Input/Output section (file.cio):                                        
    2/7/2013 12:00:00 AM ARCGIS-SWAT interface AV                                   
                                                                                    


       RCH      GIS   MON     AREAkm2  FLOW_INcms FLOW_OUTcms
REACH    1        0     1  0.2495E+02  0.8049E-03  0.1431E-01  0.1401E-44
REACH    2        0     1  0.5464E+02  0.1669E-01  0.5983E-01  0.2803E-44
REACH    3        0     1  0.1361E+02  0.9590E-01  0.3220E-01  0.4204E-44
REACH    4        0     1  0.9257E+02  0.1499E+00  0.1472E+00  0.5605E-44
REACH    1        0     2  0.2495E+02  0.7840E-03  0.1367E-01  0.1401E-44
REACH    2        0     2  0.5464E+02  0.1598E-01  0.5777E-01  0.2803E-44
REACH    3        0     2  0.1361E+02  0.5006E-02  0.3093E-01  0.4204E-44
REACH    4        0     2  0.9257E+02  0.9918E-01  0.1450E+00  0.5605E-44
REACH    1        0     3  0.2495E+02  0.7646E-03  0.1307E-01  0.1401E-44
REACH    2        0     3  0.5464E+02  0.1529E-01  0.5578E-01  0.2803E-44
REACH    3        0     3  0.1361E+02  0.4685E-02  0.2970E-01  0.4204E-44
REACH    4        0     3  0.9257E+02  0.9553E-01  0.1426E+00  0.5605E-44
REACH    1        0     4  0.2495E+02  0.7463E-03  0.1249E-01  0.1401E-44
REACH    2        0     4  0.5464E+02  0.1464E-01  0.5385E-01  0.2803E-44
REACH    3        0     4  0.1361E+02  0.4507E-02  0.2852E-01  0.4204E-44
REACH    4        0     4  0.9257E+02  0.9203E-01  0.1403E+00  0.5605E-44
REACH    1        0     5  0.2495E+02  0.1275E+00  0.8066E-01  0.1401E-44
REACH    2        0     5  0.5464E+02  0.2096E+00  0.6115E-01  0.2803E-44
REACH    3        0     5  0.1361E+02  0.2734E-01  0.2846E-01  0.4204E-44
REACH    4        0     5  0.9257E+02  0.1112E+00  0.1389E+00  0.5605E-44
REACH    1        0     6  0.2495E+02  0.1603E-02  0.1417E-01  0.1401E-44
REACH    2        0     6  0.5464E+02  0.1668E-01  0.5906E-01  0.2803E-44
REACH    3        0     6  0.1361E+02  0.9822E-02  0.2759E-01  0.4204E-44
REACH    4        0     6  0.9257E+02  0.9910E-01  0.1370E+00  0.5605E-44
REACH    1        0     7  0.2495E+02  0.1099E-02  0.1356E-01  0.1401E-44
REACH    2        0     7  0.5464E+02  0.1585E-01  0.5703E-01  0.2803E-44
REACH    3        0     7  0.1361E+02  0.4370E-02  0.2650E-01  0.4204E-44
REACH    4        0     7  0.9257E+02  0.9290E-01  0.1350E+00  0.5605E-44
REACH    1        0     8  0.2495E+02  0.6220E-01  0.1984E-01  0.1401E-44
REACH    2        0     8  0.5464E+02  0.8323E-01  0.5826E-01  0.2803E-44
REACH    3        0     8  0.1361E+02  0.7889E-02  0.2563E-01  0.4204E-44
REACH    4        0     8  0.9257E+02  0.9488E-01  0.1331E+00  0.5605E-44
REACH    1        0     9  0.2495E+02  0.3390E-01  0.1650E-01  0.1401E-44
REACH    2        0     9  0.5464E+02  0.5116E-01  0.5793E-01  0.2803E-44
REACH    3        0     9  0.1361E+02  0.4084E-02  0.2462E-01  0.4204E-44
REACH    4        0     9  0.9257E+02  0.9129E-01  0.1311E+00  0.5605E-44
REACH    1        0    10  0.2495E+02  0.1516E-02  0.1580E-01  0.1401E-44
REACH    2        0    10  0.5464E+02  0.1840E-01  0.5607E-01  0.2803E-44
REACH    3        0    10  0.1361E+02  0.3923E-02  0.2365E-01  0.4204E-44
REACH    4        0    10  0.9257E+02  0.8812E-01  0.1291E+00  0.5605E-44
REACH    1        0    11  0.2495E+02  0.1119E-02  0.1511E-01  0.1401E-44
REACH    2        0    11  0.5464E+02  0.1758E-01  0.5427E-01  0.2803E-44
REACH    3        0    11  0.1361E+02  0.3774E-02  0.2271E-01  0.4204E-44
REACH    4        0    11  0.9257E+02  0.8506E-01  0.1270E+00  0.5605E-44
REACH    1        0    12  0.2495E+02  0.3290E+00  0.2982E-01  0.1401E-44
REACH    2        0    12  0.5464E+02  0.3602E+00  0.6861E-01  0.2803E-44
REACH    3        0    12  0.1361E+02  0.4250E+00  0.4157E-01  0.4204E-44
REACH    4        0    12  0.9257E+02  0.5600E+00  0.1473E+00  0.5605E-44
REACH    1        0    13  0.2495E+02  0.3610E-02  0.2859E-01  0.1401E-44
REACH    2        0    13  0.5464E+02  0.3280E-01  0.6693E-01  0.2803E-44
REACH    3        0    13  0.1361E+02  0.7839E-01  0.4329E-01  0.4204E-44
REACH    4        0    13  0.9257E+02  0.1686E+00  0.1483E+00  0.5605E-44
REACH    1        0    14  0.2495E+02  0.2079E-02  0.2735E-01  0.1401E-44
REACH    2        0    14  0.5464E+02  0.3105E-01  0.6525E-01  0.2803E-44
REACH    3        0    14  0.1361E+02  0.6121E-02  0.4155E-01  0.4204E-44
REACH    4        0    14  0.9257E+02  0.1198E+00  0.1470E+00  0.5605E-44
REACH    1        0    15  0.2495E+02  0.1497E-02  0.2614E-01  0.1401E-44
REACH    2        0    15  0.5464E+02  0.2969E-01  0.6358E-01  0.2803E-44
REACH    3        0    15  0.1361E+02  0.5882E-02  0.3988E-01  0.4204E-44
REACH    4        0    15  0.9257E+02  0.1162E+00  0.1455E+00  0.5605E-44
REACH    1        0    16  0.2495E+02  0.1196E-02  0.2497E-01  0.1401E-44
REACH    2        0    16  0.5464E+02  0.2838E-01  0.6192E-01  0.2803E-44
REACH    3        0    16  0.1361E+02  0.5714E-02  0.3828E-01  0.4204E-44
REACH    4        0    16  0.9257E+02  0.1126E+00  0.1440E+00  0.5605E-44
REACH    1        0    17  0.2495E+02  0.1033E-02  0.2385E-01  0.1401E-44
REACH    2        0    17  0.5464E+02  0.2712E-01  0.6029E-01  0.2803E-44
REACH    3        0    17  0.1361E+02  0.5511E-02  0.3674E-01  0.4204E-44
REACH    4        0    17  0.9257E+02  0.1090E+00  0.1424E+00  0.5605E-44
REACH    1        0    18  0.2495E+02  0.5357E+00  0.2365E+00  0.1401E-44
REACH    2        0    18  0.5464E+02  0.7751E+00  0.9379E-01  0.2803E-44
REACH    3        0    18  0.1361E+02  0.5298E-02  0.3527E-01  0.4204E-44
REACH    4        0    18  0.9257E+02  0.1405E+00  0.1423E+00  0.5605E-44
REACH    1        0    19  0.2495E+02  0.4632E-02  0.3696E-01  0.1401E-44
REACH    2        0    19  0.5464E+02  0.4236E-01  0.9138E-01  0.2803E-44
REACH    3        0    19  0.1361E+02  0.1110E-01  0.3413E-01  0.4204E-44
REACH    4        0    19  0.9257E+02  0.1397E+00  0.1421E+00  0.5605E-44
REACH    1        0    20  0.2495E+02  0.2546E-02  0.3535E-01  0.1401E-44
REACH    2        0    20  0.5464E+02  0.3997E-01  0.8897E-01  0.2803E-44
REACH    3        0    20  0.1361E+02  0.4939E-02  0.3276E-01  0.4204E-44
REACH    4        0    20  0.9257E+02  0.1324E+00  0.1417E+00  0.5605E-44
REACH    1        0    21  0.2495E+02  0.1806E-02  0.3378E-01  0.1401E-44
REACH    2        0    21  0.5464E+02  0.3820E-01  0.8659E-01  0.2803E-44
REACH    3        0    21  0.1361E+02  0.1334E-01  0.3185E-01  0.4204E-44
REACH    4        0    21  0.9257E+02  0.1333E+00  0.1413E+00  0.5605E-44
REACH    1        0    22  0.2495E+02  0.1426E-02  0.3226E-01  0.1401E-44
REACH    2        0    22  0.5464E+02  0.3650E-01  0.8424E-01  0.2803E-44
REACH    3        0    22  0.1361E+02  0.8922E-01  0.3454E-01  0.4204E-44
REACH    4        0    22  0.9257E+02  0.1750E+00  0.1429E+00  0.5605E-44
REACH    1        0    23  0.2495E+02  0.1220E-02  0.3080E-01  0.1401E-44
REACH    2        0    23  0.5464E+02  0.3487E-01  0.8192E-01  0.2803E-44
REACH    3        0    23  0.1361E+02  0.5511E-02  0.3318E-01  0.4204E-44
REACH    4        0    23  0.9257E+02  0.1268E+00  0.1421E+00  0.5605E-44
REACH    1        0    24  0.2495E+02  0.1103E-02  0.2941E-01  0.1401E-44
REACH    2        0    24  0.5464E+02  0.3332E-01  0.7964E-01  0.2803E-44
REACH    3        0    24  0.1361E+02  0.5001E-01  0.3397E-01  0.4204E-44
REACH    4        0    24  0.9257E+02  0.1489E+00  0.1424E+00  0.5605E-44
REACH    1        0    25  0.2495E+02  0.1278E+00  0.9708E-01  0.1401E-44
REACH    2        0    25  0.5464E+02  0.2277E+00  0.8658E-01  0.2803E-44
REACH    3        0    25  0.1361E+02  0.5588E-02  0.3264E-01  0.4204E-44
REACH    4        0    25  0.9257E+02  0.1312E+00  0.1419E+00  0.5605E-44
REACH    1        0    26  0.2495E+02  0.1873E-02  0.2956E-01  0.1401E-44
REACH    2        0    26  0.5464E+02  0.3366E-01  0.8410E-01  0.2803E-44
REACH    3        0    26  0.1361E+02  0.5333E-02  0.3136E-01  0.4204E-44
REACH    4        0    26  0.9257E+02  0.1271E+00  0.1412E+00  0.5605E-44
REACH    1        0    27  0.2495E+02  0.1348E-02  0.2824E-01  0.1401E-44
REACH    2        0    27  0.5464E+02  0.3204E-01  0.8166E-01  0.2803E-44
REACH    3        0    27  0.1361E+02  0.5135E-02  0.3013E-01  0.4204E-44
REACH    4        0    27  0.9257E+02  0.1230E+00  0.1403E+00  0.5605E-44
REACH    1        0    28  0.2495E+02  0.1149E-02  0.2697E-01  0.1401E-44
REACH    2        0    28  0.5464E+02  0.3062E-01  0.7927E-01  0.2803E-44
REACH    3        0    28  0.1361E+02  0.4936E-02  0.2895E-01  0.4204E-44
REACH    4        0    28  0.9257E+02  0.1189E+00  0.1393E+00  0.5605E-44
REACH    1        0    29  0.2495E+02  0.1038E-02  0.2575E-01  0.1401E-44
REACH    2        0    29  0.5464E+02  0.2926E-01  0.7692E-01  0.2803E-44
REACH    3        0    29  0.1361E+02  0.4737E-02  0.2781E-01  0.4204E-44
REACH    4        0    29  0.9257E+02  0.1150E+00  0.1382E+00  0.5605E-44
REACH    1        0    30  0.2495E+02  0.9713E-03  0.2459E-01  0.1401E-44
REACH    2        0    30  0.5464E+02  0.2796E-01  0.7462E-01  0.2803E-44
REACH    3        0    30  0.1361E+02  0.4548E-02  0.2672E-01  0.4204E-44
REACH    4        0    30  0.9257E+02  0.1112E+00  0.1369E+00  0.5605E-44
REACH    1        0    31  0.2495E+02  0.9266E-03  0.2348E-01  0.1401E-44
REACH    2        0    31  0.5464E+02  0.2672E-01  0.7238E-01  0.2803E-44
REACH    3        0    31  0.1361E+02  0.4368E-02  0.2567E-01  0.4204E-44
REACH    4        0    31  0.9257E+02  0.1075E+00  0.1355E+00  0.5605E-44
REACH    1        0    32  0.2495E+02  0.8934E-03  0.2242E-01  0.1401E-44
REACH    2        0    32  0.5464E+02  0.2554E-01  0.7018E-01  0.2803E-44
REACH    3        0    32  0.1361E+02  0.3748E-01  0.2623E-01  0.4204E-44
REACH    4        0    32  0.9257E+02  0.1230E+00  0.1350E+00  0.5605E-44
REACH    1        0    33  0.2495E+02  0.8665E-03  0.2141E-01  0.1401E-44
REACH    2        0    33  0.5464E+02  0.2441E-01  0.6803E-01  0.2803E-44
REACH    3        0    33  0.1361E+02  0.5635E-02  0.2526E-01  0.4204E-44
REACH    4        0    33  0.9257E+02  0.1032E+00  0.1335E+00  0.5605E-44
REACH    1        0    34  0.2495E+02  0.8430E-03  0.2045E-01  0.1401E-44
REACH    2        0    34  0.5464E+02  0.2333E-01  0.6594E-01  0.2803E-44
REACH    3        0    34  0.1361E+02  0.4093E-02  0.2427E-01  0.4204E-44
REACH    4        0    34  0.9257E+02  0.9908E-01  0.1319E+00  0.5605E-44
REACH    1        0    35  0.2495E+02  0.8217E-03  0.1953E-01  0.1401E-44
REACH    2        0    35  0.5464E+02  0.2231E-01  0.6389E-01  0.2803E-44
REACH    3        0    35  0.1361E+02  0.3933E-02  0.2331E-01  0.4204E-44
REACH    4        0    35  0.9257E+02  0.9573E-01  0.1302E+00  0.5605E-44
REACH    1        0    36  0.2495E+02  0.8017E-03  0.1865E-01  0.1401E-44
REACH    2        0    36  0.5464E+02  0.2132E-01  0.6189E-01  0.2803E-44
REACH    3        0    36  0.1361E+02  0.3783E-02  0.2240E-01  0.4204E-44
REACH    4        0    36  0.9257E+02  0.9248E-01  0.1284E+00  0.5605E-44
REACH    1        0    37  0.2495E+02  0.7827E-03  0.1781E-01  0.1401E-44
REACH    2        0    37  0.5464E+02  0.2039E-01  0.5995E-01  0.2803E-44
REACH    3        0    37  0.1361E+02  0.3639E-02  0.2152E-01  0.4204E-44
REACH    4        0    37  0.9257E+02  0.8934E-01  0.1266E+00  0.5605E-44
REACH    1        0    38  0.2495E+02  0.7644E-03  0.1701E-01  0.1401E-44
REACH    2        0    38  0.5464E+02  0.1950E-01  0.5805E-01  0.2803E-44
REACH    3        0    38  0.1361E+02  0.1058E-01  0.2101E-01  0.4204E-44
REACH    4        0    38  0.9257E+02  0.9040E-01  0.1249E+00  0.5605E-44
REACH    1        0    39  0.2495E+02  0.3535E+00  0.5044E-01  0.1401E-44
REACH    2        0    39  0.5464E+02  0.4067E+00  0.7439E-01  0.2803E-44
REACH    3        0    39  0.1361E+02  0.3909E-02  0.2020E-01  0.4204E-44
REACH    4        0    39  0.9257E+02  0.1023E+00  0.1238E+00  0.5605E-44
REACH    1        0    40  0.2495E+02  0.2700E-02  0.3053E-01  0.1401E-44
REACH    2        0    40  0.5464E+02  0.3414E-01  0.7250E-01  0.2803E-44
REACH    3        0    40  0.1361E+02  0.1478E+00  0.2618E-01  0.4204E-44
REACH    4        0    40  0.9257E+02  0.2044E+00  0.1276E+00  0.5605E-44
REACH    1        0    41  0.2495E+02  0.1562E-02  0.2917E-01  0.1401E-44
REACH    2        0    41  0.5464E+02  0.3228E-01  0.7062E-01  0.2803E-44
REACH    3        0    41  0.1361E+02  0.4535E-02  0.2517E-01  0.4204E-44
REACH    4        0    41  0.9257E+02  0.1053E+00  0.1265E+00  0.5605E-44
REACH    1        0    42  0.2495E+02  0.4417E+00  0.1486E+00  0.1401E-44
REACH    2        0    42  0.5464E+02  0.5920E+00  0.9505E-01  0.2803E-44
REACH    3        0    42  0.1361E+02  0.4205E-02  0.2418E-01  0.4204E-44
REACH    4        0    42  0.9257E+02  0.1284E+00  0.1266E+00  0.5605E-44
REACH    1        0    43  0.2495E+02  0.7803E-02  0.4189E-01  0.1401E-44
REACH    2        0    43  0.5464E+02  0.5017E-01  0.9295E-01  0.2803E-44
REACH    3        0    43  0.1361E+02  0.4066E-02  0.2324E-01  0.4204E-44
REACH    4        0    43  0.9257E+02  0.1251E+00  0.1265E+00  0.5605E-44
REACH    1        0    44  0.2495E+02  0.2692E-02  0.4005E-01  0.1401E-44
REACH    2        0    44  0.5464E+02  0.4464E-01  0.9068E-01  0.2803E-44
REACH    3        0    44  0.1361E+02  0.3917E-02  0.2234E-01  0.4204E-44
REACH    4        0    44  0.9257E+02  0.1216E+00  0.1263E+00  0.5605E-44
REACH    1        0    45  0.2495E+02  0.1876E-02  0.3826E-01  0.1401E-44
REACH    2        0    45  0.5464E+02  0.4266E-01  0.8843E-01  0.2803E-44
REACH    3        0    45  0.1361E+02  0.3765E-02  0.2146E-01  0.4204E-44
REACH    4        0    45  0.9257E+02  0.1181E+00  0.1259E+00  0.5605E-44
REACH    1        0    46  0.2495E+02  0.1458E-02  0.3654E-01  0.1401E-44
REACH    2        0    46  0.5464E+02  0.4075E-01  0.8619E-01  0.2803E-44
REACH    3        0    46  0.1361E+02  0.3619E-02  0.2063E-01  0.4204E-44
REACH    4        0    46  0.9257E+02  0.1147E+00  0.1254E+00  0.5605E-44
REACH    1        0    47  0.2495E+02  0.1234E-02  0.3488E-01  0.1401E-44
REACH    2        0    47  0.5464E+02  0.3892E-01  0.8398E-01  0.2803E-44
REACH    3        0    47  0.1361E+02  0.3481E-02  0.1982E-01  0.4204E-44
REACH    4        0    47  0.9257E+02  0.1114E+00  0.1247E+00  0.5605E-44
REACH    1        0    48  0.2495E+02  0.1107E-02  0.3330E-01  0.1401E-44
REACH    2        0    48  0.5464E+02  0.3718E-01  0.8178E-01  0.2803E-44
REACH    3        0    48  0.1361E+02  0.3349E-02  0.1905E-01  0.4204E-44
REACH    4        0    48  0.9257E+02  0.1081E+00  0.1240E+00  0.5605E-44
REACH    1        0    49  0.2495E+02  0.4334E+00  0.1448E+00  0.1401E-44
REACH    2        0    49  0.5464E+02  0.5810E+00  0.1052E+00  0.2803E-44
REACH    3        0    49  0.1361E+02  0.3223E-02  0.1831E-01  0.4204E-44
REACH    4        0    49  0.9257E+02  0.1305E+00  0.1243E+00  0.5605E-44
REACH    1        0    50  0.2495E+02  0.5112E-01  0.4765E-01  0.1401E-44
REACH    2        0    50  0.5464E+02  0.9939E-01  0.1049E+00  0.2803E-44
REACH    3        0    50  0.1361E+02  0.3104E-02  0.1760E-01  0.4204E-44
REACH    4        0    50  0.9257E+02  0.1293E+00  0.1245E+00  0.5605E-44
REACH    1        0    51  0.2495E+02  0.3297E-02  0.4557E-01  0.1401E-44
REACH    2        0    51  0.5464E+02  0.5092E-01  0.1024E+00  0.2803E-44
REACH    3        0    51  0.1361E+02  0.2990E-02  0.1691E-01  0.4204E-44
REACH    4        0    51  0.9257E+02  0.1258E+00  0.1245E+00  0.5605E-44
REACH    1        0    52  0.2495E+02  0.2220E-02  0.4354E-01  0.1401E-44
REACH    2        0    52  0.5464E+02  0.4861E-01  0.9985E-01  0.2803E-44
REACH    3        0    52  0.1361E+02  0.7413E+00  0.5086E-01  0.4204E-44
REACH    4        0    52  0.9257E+02  0.1062E+01  0.1684E+00  0.5605E-44
REACH    1        0    53  0.2495E+02  0.1698E-02  0.4158E-01  0.1401E-44
REACH    2        0    53  0.5464E+02  0.4644E-01  0.9734E-01  0.2803E-44
REACH    3        0    53  0.1361E+02  0.5863E-02  0.4875E-01  0.4204E-44
REACH    4        0    53  0.9257E+02  0.1583E+00  0.1680E+00  0.5605E-44
REACH    1        0    54  0.2495E+02  0.1421E-02  0.3969E-01  0.1401E-44
REACH    2        0    54  0.5464E+02  0.4436E-01  0.9486E-01  0.2803E-44
REACH    3        0    54  0.1361E+02  0.4743E-02  0.4669E-01  0.4204E-44
REACH    4        0    54  0.9257E+02  0.1520E+00  0.1672E+00  0.5605E-44
REACH    1        0    55  0.2495E+02  0.3668E+00  0.8551E-01  0.1401E-44
REACH    2        0    55  0.5464E+02  0.4563E+00  0.1118E+00  0.2803E-44
REACH    3        0    55  0.1361E+02  0.4593E-02  0.4471E-01  0.4204E-44
REACH    4        0    55  0.9257E+02  0.1667E+00  0.1672E+00  0.5605E-44
REACH    1        0    56  0.2495E+02  0.3481E-02  0.5117E-01  0.1401E-44
REACH    2        0    56  0.5464E+02  0.5695E-01  0.1092E+00  0.2803E-44
REACH    3        0    56  0.1361E+02  0.4424E-02  0.4282E-01  0.4204E-44
REACH    4        0    56  0.9257E+02  0.1618E+00  0.1669E+00  0.5605E-44
REACH    1        0    57  0.2495E+02  0.2137E-02  0.4887E-01  0.1401E-44
REACH    2        0    57  0.5464E+02  0.5404E-01  0.1066E+00  0.2803E-44
REACH    3        0    57  0.1361E+02  0.2877E-01  0.4217E-01  0.4204E-44
REACH    4        0    57  0.9257E+02  0.1711E+00  0.1671E+00  0.5605E-44
REACH    1        0    58  0.2495E+02  0.1665E-02  0.4666E-01  0.1401E-44
REACH    2        0    58  0.5464E+02  0.5161E-01  0.1041E+00  0.2803E-44
REACH    3        0    58  0.1361E+02  0.6939E-02  0.4051E-01  0.4204E-44
REACH    4        0    58  0.9257E+02  0.1553E+00  0.1666E+00  0.5605E-44
REACH    1        0    59  0.2495E+02  0.1416E-02  0.4454E-01  0.1401E-44
REACH    2        0    59  0.5464E+02  0.4929E-01  0.1015E+00  0.2803E-44
REACH    3        0    59  0.1361E+02  0.4074E-02  0.3881E-01  0.4204E-44
REACH    4        0    59  0.9257E+02  0.1493E+00  0.1658E+00  0.5605E-44
REACH    1        0    60  0.2495E+02  0.1276E-02  0.4251E-01  0.1401E-44
REACH    2        0    60  0.5464E+02  0.4706E-01  0.9893E-01  0.2803E-44
REACH    3        0    60  0.1361E+02  0.3909E-02  0.3717E-01  0.4204E-44
REACH    4        0    60  0.9257E+02  0.1447E+00  0.1648E+00  0.5605E-44
REACH    1        0    61  0.2495E+02  0.1190E-02  0.4057E-01  0.1401E-44
REACH    2        0    61  0.5464E+02  0.4494E-01  0.9640E-01  0.2803E-44
REACH    3        0    61  0.1361E+02  0.3756E-02  0.3560E-01  0.4204E-44
REACH    4        0    61  0.9257E+02  0.1403E+00  0.1636E+00  0.5605E-44
REACH    1        0    62  0.2495E+02  0.1553E-01  0.3940E-01  0.1401E-44
REACH    2        0    62  0.5464E+02  0.5781E-01  0.9459E-01  0.2803E-44
REACH    3        0    62  0.1361E+02  0.3611E-02  0.3410E-01  0.4204E-44
REACH    4        0    62  0.9257E+02  0.1367E+00  0.1623E+00  0.5605E-44
REACH    1        0    63  0.2495E+02  0.1301E-02  0.3761E-01  0.1401E-44
REACH    2        0    63  0.5464E+02  0.4172E-01  0.9211E-01  0.2803E-44
REACH    3        0    63  0.1361E+02  0.3473E-02  0.3267E-01  0.4204E-44
REACH    4        0    63  0.9257E+02  0.1324E+00  0.1609E+00  0.5605E-44
REACH    1        0    64  0.2495E+02  0.1160E-02  0.3591E-01  0.1401E-44
REACH    2        0    64  0.5464E+02  0.3984E-01  0.8965E-01  0.2803E-44
REACH    3        0    64  0.1361E+02  0.3341E-02  0.3129E-01  0.4204E-44
REACH    4        0    64  0.9257E+02  0.1283E+00  0.1594E+00  0.5605E-44
REACH    1        0    65  0.2495E+02  0.1086E-02  0.3427E-01  0.1401E-44
REACH    2        0    65  0.5464E+02  0.3805E-01  0.8723E-01  0.2803E-44
REACH    3        0    65  0.1361E+02  0.3215E-02  0.2997E-01  0.4204E-44
REACH    4        0    65  0.9257E+02  0.1243E+00  0.1577E+00  0.5605E-44
REACH    1        0    66  0.2495E+02  0.5676E-01  0.3533E-01  0.1401E-44
REACH    2        0    66  0.5464E+02  0.9454E-01  0.8757E-01  0.2803E-44
REACH    3        0    66  0.1361E+02  0.7849E-01  0.3225E-01  0.4204E-44
REACH    4        0    66  0.9257E+02  0.1662E+00  0.1581E+00  0.5605E-44
REACH    1        0    67  0.2495E+02  0.1513E-02  0.3374E-01  0.1401E-44
REACH    2        0    67  0.5464E+02  0.3749E-01  0.8522E-01  0.2803E-44
REACH    3        0    67  0.1361E+02  0.7779E-01  0.3438E-01  0.4204E-44
REACH    4        0    67  0.9257E+02  0.1662E+00  0.1585E+00  0.5605E-44
REACH    1        0    68  0.2495E+02  0.1212E-02  0.3222E-01  0.1401E-44
REACH    2        0    68  0.5464E+02  0.3577E-01  0.8290E-01  0.2803E-44
REACH    3        0    68  0.1361E+02  0.5162E-02  0.3301E-01  0.4204E-44
REACH    4        0    68  0.9257E+02  0.1247E+00  0.1569E+00  0.5605E-44
REACH    1        0    69  0.2495E+02  0.2857E-02  0.3084E-01  0.1401E-44
REACH    2        0    69  0.5464E+02  0.3593E-01  0.8070E-01  0.2803E-44
REACH    3        0    69  0.1361E+02  0.3519E-02  0.3163E-01  0.4204E-44
REACH    4        0    69  0.9257E+02  0.1201E+00  0.1552E+00  0.5605E-44
REACH    1        0    70  0.2495E+02  0.1069E-02  0.2945E-01  0.1401E-44
REACH    2        0    70  0.5464E+02  0.3274E-01  0.7845E-01  0.2803E-44
REACH    3        0    70  0.1361E+02  0.3381E-02  0.3030E-01  0.4204E-44
REACH    4        0    70  0.9257E+02  0.1162E+00  0.1534E+00  0.5605E-44
REACH    1        0    71  0.2495E+02  0.9889E-03  0.2811E-01  0.1401E-44
REACH    2        0    71  0.5464E+02  0.3128E-01  0.7623E-01  0.2803E-44
REACH    3        0    71  0.1361E+02  0.3253E-02  0.2903E-01  0.4204E-44
REACH    4        0    71  0.9257E+02  0.1124E+00  0.1514E+00  0.5605E-44
REACH    1        0    72  0.2495E+02  0.9389E-03  0.2684E-01  0.1401E-44
REACH    2        0    72  0.5464E+02  0.2989E-01  0.7406E-01  0.2803E-44
REACH    3        0    72  0.1361E+02  0.7767E-02  0.2804E-01  0.4204E-44
REACH    4        0    72  0.9257E+02  0.1115E+00  0.1496E+00  0.5605E-44
REACH    1        0    73  0.2495E+02  0.9033E-03  0.2562E-01  0.1401E-44
REACH    2        0    73  0.5464E+02  0.2856E-01  0.7192E-01  0.2803E-44
REACH    3        0    73  0.1361E+02  0.7005E-01  0.3000E-01  0.4204E-44
REACH    4        0    73  0.9257E+02  0.1439E+00  0.1493E+00  0.5605E-44
REACH    1        0    74  0.2495E+02  0.8753E-03  0.2446E-01  0.1401E-44
REACH    2        0    74  0.5464E+02  0.2729E-01  0.6983E-01  0.2803E-44
REACH    3        0    74  0.1361E+02  0.4579E-02  0.2881E-01  0.4204E-44
REACH    4        0    74  0.9257E+02  0.1065E+00  0.1473E+00  0.5605E-44
REACH    1        0    75  0.2495E+02  0.8513E-03  0.2336E-01  0.1401E-44
REACH    2        0    75  0.5464E+02  0.2608E-01  0.6777E-01  0.2803E-44
REACH    3        0    75  0.1361E+02  0.1841E+00  0.3609E-01  0.4204E-44
REACH    4        0    75  0.9257E+02  0.2502E+00  0.1521E+00  0.5605E-44
REACH    1        0    76  0.2495E+02  0.8296E-03  0.2230E-01  0.1401E-44
REACH    2        0    76  0.5464E+02  0.2493E-01  0.6576E-01  0.2803E-44
REACH    3        0    76  0.1361E+02  0.5715E-02  0.3466E-01  0.4204E-44
REACH    4        0    76  0.9257E+02  0.1107E+00  0.1502E+00  0.5605E-44
REACH    1        0    77  0.2495E+02  0.3752E+00  0.7656E-01  0.1401E-44
REACH    2        0    77  0.5464E+02  0.4547E+00  0.8399E-01  0.2803E-44
REACH    3        0    77  0.1361E+02  0.4222E-02  0.3324E-01  0.4204E-44
REACH    4        0    77  0.9257E+02  0.1266E+00  0.1490E+00  0.5605E-44
REACH    1        0    78  0.2495E+02  0.1451E+01  0.1153E+01  0.1401E-44
REACH    2        0    78  0.5464E+02  0.2603E+01  0.2021E+00  0.2803E-44
REACH    3        0    78  0.1361E+02  0.4079E-02  0.3187E-01  0.4204E-44
REACH    4        0    78  0.9257E+02  0.2430E+00  0.1534E+00  0.5605E-44
REACH    1        0    79  0.2495E+02  0.1180E-01  0.4975E-01  0.1401E-44
REACH    2        0    79  0.5464E+02  0.5923E-01  0.1954E+00  0.2803E-44
REACH    3        0    79  0.1361E+02  0.3921E-02  0.3056E-01  0.4204E-44
REACH    4        0    79  0.9257E+02  0.2346E+00  0.1572E+00  0.5605E-44
REACH    1        0    80  0.2495E+02  0.1700E-01  0.4822E-01  0.1401E-44
REACH    2        0    80  0.5464E+02  0.6674E-01  0.1893E+00  0.2803E-44
REACH    3        0    80  0.1361E+02  0.3764E-02  0.2930E-01  0.4204E-44
REACH    4        0    80  0.9257E+02  0.2270E+00  0.1605E+00  0.5605E-44
REACH    1        0    81  0.2495E+02  0.3945E-02  0.4614E-01  0.1401E-44
REACH    2        0    81  0.5464E+02  0.5347E-01  0.1830E+00  0.2803E-44
REACH    3        0    81  0.1361E+02  0.3615E-02  0.2810E-01  0.4204E-44
REACH    4        0    81  0.9257E+02  0.2191E+00  0.1632E+00  0.5605E-44
REACH    1        0    82  0.2495E+02  0.2773E-02  0.4411E-01  0.1401E-44
REACH    2        0    82  0.5464E+02  0.5111E-01  0.1768E+00  0.2803E-44
REACH    3        0    82  0.1361E+02  0.1733E+00  0.3490E-01  0.4204E-44
REACH    4        0    82  0.9257E+02  0.3258E+00  0.1709E+00  0.5605E-44
REACH    1        0    83  0.2495E+02  0.2166E-02  0.4214E-01  0.1401E-44
REACH    2        0    83  0.5464E+02  0.4885E-01  0.1708E+00  0.2803E-44
REACH    3        0    83  0.1361E+02  0.4455E-02  0.3347E-01  0.4204E-44
REACH    4        0    83  0.9257E+02  0.2137E+00  0.1729E+00  0.5605E-44
REACH    1        0    84  0.2495E+02  0.1836E-02  0.4025E-01  0.1401E-44
REACH    2        0    84  0.5464E+02  0.4667E-01  0.1650E+00  0.2803E-44
REACH    3        0    84  0.1361E+02  0.4035E-02  0.3209E-01  0.4204E-44
REACH    4        0    84  0.9257E+02  0.2060E+00  0.1744E+00  0.5605E-44
REACH    1        0    85  0.2495E+02  0.1646E-02  0.3844E-01  0.1401E-44
REACH    2        0    85  0.5464E+02  0.4459E-01  0.1593E+00  0.2803E-44
REACH    3        0    85  0.1361E+02  0.3872E-02  0.3077E-01  0.4204E-44
REACH    4        0    85  0.9257E+02  0.1987E+00  0.1755E+00  0.5605E-44
REACH    1        0    86  0.2495E+02  0.1529E-02  0.3671E-01  0.1401E-44
REACH    2        0    86  0.5464E+02  0.4261E-01  0.1538E+00  0.2803E-44
REACH    3        0    86  0.1361E+02  0.1040E-01  0.2981E-01  0.4204E-44
REACH    4        0    86  0.9257E+02  0.1955E+00  0.1765E+00  0.5605E-44
REACH    1        0    87  0.2495E+02  0.1451E-02  0.3506E-01  0.1401E-44
REACH    2        0    87  0.5464E+02  0.4071E-01  0.1485E+00  0.2803E-44
REACH    3        0    87  0.1361E+02  0.1144E-01  0.2895E-01  0.4204E-44
REACH    4        0    87  0.9257E+02  0.1897E+00  0.1771E+00  0.5605E-44
REACH    1        0    88  0.2495E+02  0.1394E-02  0.3348E-01  0.1401E-44
REACH    2        0    88  0.5464E+02  0.3890E-01  0.1434E+00  0.2803E-44
REACH    3        0    88  0.1361E+02  0.3550E-02  0.2776E-01  0.4204E-44
REACH    4        0    88  0.9257E+02  0.1790E+00  0.1772E+00  0.5605E-44
REACH    1        0    89  0.2495E+02  0.1348E-02  0.3198E-01  0.1401E-44
REACH    2        0    89  0.5464E+02  0.3718E-01  0.1384E+00  0.2803E-44
REACH    3        0    89  0.1361E+02  0.3400E-02  0.2662E-01  0.4204E-44
REACH    4        0    89  0.9257E+02  0.1726E+00  0.1769E+00  0.5605E-44
REACH    1        0    90  0.2495E+02  0.8124E-02  0.3086E-01  0.1401E-44
REACH    2        0    90  0.5464E+02  0.4251E-01  0.1339E+00  0.2803E-44
REACH    3        0    90  0.1361E+02  0.7493E-01  0.2888E-01  0.4204E-44
REACH    4        0    90  0.9257E+02  0.2077E+00  0.1784E+00  0.5605E-44
REACH    1        0    91  0.2495E+02  0.1406E-02  0.2948E-01  0.1401E-44
REACH    2        0    91  0.5464E+02  0.3431E-01  0.1292E+00  0.2803E-44
REACH    3        0    91  0.1361E+02  0.3542E-02  0.2769E-01  0.4204E-44
REACH    4        0    91  0.9257E+02  0.1646E+00  0.1777E+00  0.5605E-44
REACH    1        0    92  0.2495E+02  0.1307E-02  0.2816E-01  0.1401E-44
REACH    2        0    92  0.5464E+02  0.3279E-01  0.1247E+00  0.2803E-44
REACH    3        0    92  0.1361E+02  0.3297E-02  0.2655E-01  0.4204E-44
REACH    4        0    92  0.9257E+02  0.1586E+00  0.1768E+00  0.5605E-44
REACH    1        0    93  0.2495E+02  0.1248E-02  0.2690E-01  0.1401E-44
REACH    2        0    93  0.5464E+02  0.3135E-01  0.1203E+00  0.2803E-44
REACH    3        0    93  0.1361E+02  0.3170E-02  0.2545E-01  0.4204E-44
REACH    4        0    93  0.9257E+02  0.1528E+00  0.1757E+00  0.5605E-44
REACH    1        0    94  0.2495E+02  0.1204E-02  0.2569E-01  0.1401E-44
REACH    2        0    94  0.5464E+02  0.2997E-01  0.1161E+00  0.2803E-44
REACH    3        0    94  0.1361E+02  0.3050E-02  0.2440E-01  0.4204E-44
REACH    4        0    94  0.9257E+02  0.1473E+00  0.1744E+00  0.5605E-44
REACH    1        0    95  0.2495E+02  0.1169E-02  0.2454E-01  0.1401E-44
REACH    2        0    95  0.5464E+02  0.2866E-01  0.1120E+00  0.2803E-44
REACH    3        0    95  0.1361E+02  0.2935E-02  0.2339E-01  0.4204E-44
REACH    4        0    95  0.9257E+02  0.1419E+00  0.1728E+00  0.5605E-44
REACH    1        0    96  0.2495E+02  0.1138E-02  0.2345E-01  0.1401E-44
REACH    2        0    96  0.5464E+02  0.2740E-01  0.1080E+00  0.2803E-44
REACH    3        0    96  0.1361E+02  0.2826E-02  0.2243E-01  0.4204E-44
REACH    4        0    96  0.9257E+02  0.1367E+00  0.1711E+00  0.5605E-44
REACH    1        0    97  0.2495E+02  0.1110E-02  0.2240E-01  0.1401E-44
REACH    2        0    97  0.5464E+02  0.2621E-01  0.1042E+00  0.2803E-44
REACH    3        0    97  0.1361E+02  0.8545E-02  0.2177E-01  0.4204E-44
REACH    4        0    97  0.9257E+02  0.1351E+00  0.1694E+00  0.5605E-44
REACH    1        0    98  0.2495E+02  0.1083E-02  0.2140E-01  0.1401E-44
REACH    2        0    98  0.5464E+02  0.2507E-01  0.1005E+00  0.2803E-44
REACH    3        0    98  0.1361E+02  0.8702E-01  0.2483E-01  0.4204E-44
REACH    4        0    98  0.9257E+02  0.1755E+00  0.1697E+00  0.5605E-44
REACH    1        0    99  0.2495E+02  0.1058E-02  0.2045E-01  0.1401E-44
REACH    2        0    99  0.5464E+02  0.2398E-01  0.9689E-01  0.2803E-44
REACH    3        0    99  0.1361E+02  0.3028E-02  0.2381E-01  0.4204E-44
REACH    4        0    99  0.9257E+02  0.1271E+00  0.1677E+00  0.5605E-44
REACH    1        0   100  0.2495E+02  0.9306E-01  0.5524E-01  0.1401E-44
REACH    2        0   100  0.5464E+02  0.1506E+00  0.9940E-01  0.2803E-44
REACH    3        0   100  0.1361E+02  0.2787E-02  0.2282E-01  0.4204E-44
REACH    4        0   100  0.9257E+02  0.1284E+00  0.1659E+00  0.5605E-44
REACH    1        0   101  0.2495E+02  0.1719E-02  0.2133E-01  0.1401E-44
REACH    2        0   101  0.5464E+02  0.2499E-01  0.9591E-01  0.2803E-44
REACH    3        0   101  0.1361E+02  0.2684E-02  0.2188E-01  0.4204E-44
REACH    4        0   101  0.9257E+02  0.1237E+00  0.1639E+00  0.5605E-44
REACH    1        0   102  0.2495E+02  0.1312E-02  0.2040E-01  0.1401E-44
REACH    2        0   102  0.5464E+02  0.2383E-01  0.9253E-01  0.2803E-44
REACH    3        0   102  0.1361E+02  0.2586E-02  0.2097E-01  0.4204E-44
REACH    4        0   102  0.9257E+02  0.1192E+00  0.1618E+00  0.5605E-44
REACH    1        0   103  0.2495E+02  0.2734E+00  0.3225E-01  0.1401E-44
REACH    2        0   103  0.5464E+02  0.3085E+00  0.1026E+00  0.2803E-44
REACH    3        0   103  0.1361E+02  0.9203E-02  0.2042E-01  0.4204E-44
REACH    4        0   103  0.9257E+02  0.1321E+00  0.1604E+00  0.5605E-44
REACH    1        0   104  0.2495E+02  0.2665E-02  0.3086E-01  0.1401E-44
REACH    2        0   104  0.5464E+02  0.3502E-01  0.9948E-01  0.2803E-44
REACH    3        0   104  0.1361E+02  0.2560E-02  0.1958E-01  0.4204E-44
REACH    4        0   104  0.9257E+02  0.1246E+00  0.1587E+00  0.5605E-44
REACH    1        0   105  0.2495E+02  0.1705E-02  0.2950E-01  0.1401E-44
REACH    2        0   105  0.5464E+02  0.3321E-01  0.9637E-01  0.2803E-44
REACH    3        0   105  0.1361E+02  0.2387E-02  0.1878E-01  0.4204E-44
REACH    4        0   105  0.9257E+02  0.1204E+00  0.1569E+00  0.5605E-44
REACH    1        0   106  0.2495E+02  0.4603E+00  0.1668E+00  0.1401E-44
REACH    2        0   106  0.5464E+02  0.6311E+00  0.1214E+00  0.2803E-44
REACH    3        0   106  0.1361E+02  0.2302E-02  0.1800E-01  0.4204E-44
REACH    4        0   106  0.9257E+02  0.1445E+00  0.1563E+00  0.5605E-44
REACH    1        0   107  0.2495E+02  0.3612E-02  0.4199E-01  0.1401E-44
REACH    2        0   107  0.5464E+02  0.4711E-01  0.1179E+00  0.2803E-44
REACH    3        0   107  0.1361E+02  0.2221E-02  0.1726E-01  0.4204E-44
REACH    4        0   107  0.9257E+02  0.1401E+00  0.1555E+00  0.5605E-44
REACH    1        0   108  0.2495E+02  0.2121E-02  0.4012E-01  0.1401E-44
REACH    2        0   108  0.5464E+02  0.4456E-01  0.1145E+00  0.2803E-44
REACH    3        0   108  0.1361E+02  0.2144E-02  0.1655E-01  0.4204E-44
REACH    4        0   108  0.9257E+02  0.1358E+00  0.1546E+00  0.5605E-44
REACH    1        0   109  0.2495E+02  0.1630E-02  0.3832E-01  0.1401E-44
REACH    2        0   109  0.5464E+02  0.4258E-01  0.1111E+00  0.2803E-44
REACH    3        0   109  0.1361E+02  0.2070E-02  0.1587E-01  0.4204E-44
REACH    4        0   109  0.9257E+02  0.1315E+00  0.1535E+00  0.5605E-44
REACH    1        0   110  0.2495E+02  0.1372E-02  0.3659E-01  0.1401E-44
REACH    2        0   110  0.5464E+02  0.4068E-01  0.1078E+00  0.2803E-44
REACH    3        0   110  0.1361E+02  0.1999E-02  0.1522E-01  0.4204E-44
REACH    4        0   110  0.9257E+02  0.1274E+00  0.1523E+00  0.5605E-44
REACH    1        0   111  0.2495E+02  0.1228E-02  0.3493E-01  0.1401E-44
REACH    2        0   111  0.5464E+02  0.3887E-01  0.1046E+00  0.2803E-44
REACH    3        0   111  0.1361E+02  0.1932E-02  0.1459E-01  0.4204E-44
REACH    4        0   111  0.9257E+02  0.1234E+00  0.1509E+00  0.5605E-44
REACH    1        0   112  0.2495E+02  0.1141E-02  0.3335E-01  0.1401E-44
REACH    2        0   112  0.5464E+02  0.3713E-01  0.1014E+00  0.2803E-44
REACH    3        0   112  0.1361E+02  0.1867E-02  0.1400E-01  0.4204E-44
REACH    4        0   112  0.9257E+02  0.1195E+00  0.1494E+00  0.5605E-44
REACH    1        0   113  0.2495E+02  0.1084E-02  0.3183E-01  0.1401E-44
REACH    2        0   113  0.5464E+02  0.3548E-01  0.9832E-01  0.2803E-44
REACH    3        0   113  0.1361E+02  0.1806E-02  0.1342E-01  0.4204E-44
REACH    4        0   113  0.9257E+02  0.1157E+00  0.1479E+00  0.5605E-44
REACH    1        0   114  0.2495E+02  0.1042E-02  0.3039E-01  0.1401E-44
REACH    2        0   114  0.5464E+02  0.3390E-01  0.9529E-01  0.2803E-44
REACH    3        0   114  0.1361E+02  0.1746E-02  0.1287E-01  0.4204E-44
REACH    4        0   114  0.9257E+02  0.1120E+00  0.1462E+00  0.5605E-44
REACH    1        0   115  0.2495E+02  0.1009E-02  0.2901E-01  0.1401E-44
REACH    2        0   115  0.5464E+02  0.3239E-01  0.9234E-01  0.2803E-44
REACH    3        0   115  0.1361E+02  0.1690E-02  0.1235E-01  0.4204E-44
REACH    4        0   115  0.9257E+02  0.1084E+00  0.1444E+00  0.5605E-44
REACH    1        0   116  0.2495E+02  0.9809E-03  0.2770E-01  0.1401E-44
REACH    2        0   116  0.5464E+02  0.3095E-01  0.8946E-01  0.2803E-44
REACH    3        0   116  0.1361E+02  0.1636E-02  0.1185E-01  0.4204E-44
REACH    4        0   116  0.9257E+02  0.1049E+00  0.1425E+00  0.5605E-44
REACH    1        0   117  0.2495E+02  0.9555E-03  0.2645E-01  0.1401E-44
REACH    2        0   117  0.5464E+02  0.2958E-01  0.8665E-01  0.2803E-44
REACH    3        0   117  0.1361E+02  0.1378E+00  0.1775E-01  0.4204E-44
REACH    4        0   117  0.9257E+02  0.1792E+00  0.1442E+00  0.5605E-44
REACH    1        0   118  0.2495E+02  0.9319E-03  0.2525E-01  0.1401E-44
REACH    2        0   118  0.5464E+02  0.2827E-01  0.8391E-01  0.2803E-44
REACH    3        0   118  0.1361E+02  0.2198E-02  0.1702E-01  0.4204E-44
REACH    4        0   118  0.9257E+02  0.1053E+00  0.1424E+00  0.5605E-44
REACH    1        0   119  0.2495E+02  0.9096E-03  0.2411E-01  0.1401E-44
REACH    2        0   119  0.5464E+02  0.2702E-01  0.8124E-01  0.2803E-44
REACH    3        0   119  0.1361E+02  0.1914E-02  0.1631E-01  0.4204E-44
REACH    4        0   119  0.9257E+02  0.1017E+00  0.1405E+00  0.5605E-44
REACH    1        0   120  0.2495E+02  0.8881E-03  0.2302E-01  0.1401E-44
REACH    2        0   120  0.5464E+02  0.2583E-01  0.7863E-01  0.2803E-44
REACH    3        0   120  0.1361E+02  0.1847E-02  0.1563E-01  0.4204E-44
REACH    4        0   120  0.9257E+02  0.9830E-01  0.1385E+00  0.5605E-44
REACH    1        0   121  0.2495E+02  0.8674E-03  0.2198E-01  0.1401E-44
REACH    2        0   121  0.5464E+02  0.2469E-01  0.7610E-01  0.2803E-44
REACH    3        0   121  0.1361E+02  0.1309E-01  0.1551E-01  0.4204E-44
REACH    4        0   121  0.9257E+02  0.1015E+00  0.1368E+00  0.5605E-44
REACH    1        0   122  0.2495E+02  0.8474E-03  0.2099E-01  0.1401E-44
REACH    2        0   122  0.5464E+02  0.2360E-01  0.7364E-01  0.2803E-44
REACH    3        0   122  0.1361E+02  0.1793E-02  0.1487E-01  0.4204E-44
REACH    4        0   122  0.9257E+02  0.9239E-01  0.1347E+00  0.5605E-44
REACH    1        0   123  0.2495E+02  0.8279E-03  0.2005E-01  0.1401E-44
REACH    2        0   123  0.5464E+02  0.2257E-01  0.7124E-01  0.2803E-44
REACH    3        0   123  0.1361E+02  0.1715E-02  0.1425E-01  0.4204E-44
REACH    4        0   123  0.9257E+02  0.8923E-01  0.1325E+00  0.5605E-44
REACH    1        0   124  0.2495E+02  0.8089E-03  0.1914E-01  0.1401E-44
REACH    2        0   124  0.5464E+02  0.2158E-01  0.6891E-01  0.2803E-44
REACH    3        0   124  0.1361E+02  0.1657E-02  0.1366E-01  0.4204E-44
REACH    4        0   124  0.9257E+02  0.8618E-01  0.1304E+00  0.5605E-44
REACH    1        0   125  0.2495E+02  0.7903E-03  0.1828E-01  0.1401E-44
REACH    2        0   125  0.5464E+02  0.2064E-01  0.6664E-01  0.2803E-44
REACH    3        0   125  0.1361E+02  0.1601E-02  0.1309E-01  0.4204E-44
REACH    4        0   125  0.9257E+02  0.8322E-01  0.1281E+00  0.5605E-44
REACH    1        0   126  0.2495E+02  0.7722E-03  0.1746E-01  0.1401E-44
REACH    2        0   126  0.5464E+02  0.1974E-01  0.6444E-01  0.2803E-44
REACH    3        0   126  0.1361E+02  0.1548E-02  0.1255E-01  0.4204E-44
REACH    4        0   126  0.9257E+02  0.8036E-01  0.1259E+00  0.5605E-44
REACH    1        0   127  0.2495E+02  0.7545E-03  0.1668E-01  0.1401E-44
REACH    2        0   127  0.5464E+02  0.1888E-01  0.6230E-01  0.2803E-44
REACH    3        0   127  0.1361E+02  0.1447E+00  0.1874E-01  0.4204E-44
REACH    4        0   127  0.9257E+02  0.1593E+00  0.1275E+00  0.5605E-44
REACH    1        0   128  0.2495E+02  0.7373E-03  0.1593E-01  0.1401E-44
REACH    2        0   128  0.5464E+02  0.1806E-01  0.6022E-01  0.2803E-44
REACH    3        0   128  0.1361E+02  0.2147E-02  0.1796E-01  0.4204E-44
REACH    4        0   128  0.9257E+02  0.8244E-01  0.1253E+00  0.5605E-44
REACH    1        0   129  0.2495E+02  0.7205E-03  0.1522E-01  0.1401E-44
REACH    2        0   129  0.5464E+02  0.1727E-01  0.5820E-01  0.2803E-44
REACH    3        0   129  0.1361E+02  0.1852E-02  0.1721E-01  0.4204E-44
REACH    4        0   129  0.9257E+02  0.7944E-01  0.1232E+00  0.5605E-44
REACH    1        0   130  0.2495E+02  0.7040E-03  0.1454E-01  0.1401E-44
REACH    2        0   130  0.5464E+02  0.1653E-01  0.5624E-01  0.2803E-44
REACH    3        0   130  0.1361E+02  0.1785E-02  0.1648E-01  0.4204E-44
REACH    4        0   130  0.9257E+02  0.7661E-01  0.1210E+00  0.5605E-44
REACH    1        0   131  0.2495E+02  0.6880E-03  0.1389E-01  0.1401E-44
REACH    2        0   131  0.5464E+02  0.1581E-01  0.5434E-01  0.2803E-44
REACH    3        0   131  0.1361E+02  0.1722E-02  0.1579E-01  0.4204E-44
REACH    4        0   131  0.9257E+02  0.7388E-01  0.1188E+00  0.5605E-44
REACH    1        0   132  0.2495E+02  0.6723E-03  0.1327E-01  0.1401E-44
REACH    2        0   132  0.5464E+02  0.1513E-01  0.5250E-01  0.2803E-44
REACH    3        0   132  0.1361E+02  0.1662E-02  0.1513E-01  0.4204E-44
REACH    4        0   132  0.9257E+02  0.7124E-01  0.1165E+00  0.5605E-44
REACH    1        0   133  0.2495E+02  0.5011E+00  0.1919E+00  0.1401E-44
REACH    2        0   133  0.5464E+02  0.6918E+00  0.8246E-01  0.2803E-44
REACH    3        0   133  0.1361E+02  0.1604E-02  0.1449E-01  0.4204E-44
REACH    4        0   133  0.9257E+02  0.1004E+00  0.1158E+00  0.5605E-44
REACH    1        0   134  0.2495E+02  0.3252E-02  0.2726E-01  0.1401E-44
REACH    2        0   134  0.5464E+02  0.3055E-01  0.8002E-01  0.2803E-44
REACH    3        0   134  0.1361E+02  0.1549E-02  0.1388E-01  0.4204E-44
REACH    4        0   134  0.9257E+02  0.9727E-01  0.1149E+00  0.5605E-44
REACH    1        0   135  0.2495E+02  0.1727E-02  0.2606E-01  0.1401E-44
REACH    2        0   135  0.5464E+02  0.2871E-01  0.7761E-01  0.2803E-44
REACH    3        0   135  0.1361E+02  0.1497E-02  0.1330E-01  0.4204E-44
REACH    4        0   135  0.9257E+02  0.9416E-01  0.1139E+00  0.5605E-44
REACH    1        0   136  0.2495E+02  0.1252E-02  0.2490E-01  0.1401E-44
REACH    2        0   136  0.5464E+02  0.2745E-01  0.7526E-01  0.2803E-44
REACH    3        0   136  0.1361E+02  0.1468E-02  0.1274E-01  0.4204E-44
REACH    4        0   136  0.9257E+02  0.9114E-01  0.1128E+00  0.5605E-44
REACH    1        0   137  0.2495E+02  0.2199E+00  0.1810E+00  0.1401E-44
REACH    2        0   137  0.5464E+02  0.3995E+00  0.9045E-01  0.2803E-44
REACH    3        0   137  0.1361E+02  0.1398E-02  0.1221E-01  0.4204E-44
REACH    4        0   137  0.9257E+02  0.1057E+00  0.1125E+00  0.5605E-44
REACH    1        0   138  0.2495E+02  0.2238E-02  0.2565E-01  0.1401E-44
REACH    2        0   138  0.5464E+02  0.2876E-01  0.8755E-01  0.2803E-44
REACH    3        0   138  0.1361E+02  0.1352E-02  0.1170E-01  0.4204E-44
REACH    4        0   138  0.9257E+02  0.1022E+00  0.1120E+00  0.5605E-44
REACH    1        0   139  0.2495E+02  0.1396E-02  0.2452E-01  0.1401E-44
REACH    2        0   139  0.5464E+02  0.2728E-01  0.8472E-01  0.2803E-44
REACH    3        0   139  0.1361E+02  0.1308E-02  0.1121E-01  0.4204E-44
REACH    4        0   139  0.9257E+02  0.9876E-01  0.1114E+00  0.5605E-44
REACH    1        0   140  0.2495E+02  0.1200E-02  0.2342E-01  0.1401E-44
REACH    2        0   140  0.5464E+02  0.2608E-01  0.8197E-01  0.2803E-44
REACH    3        0   140  0.1361E+02  0.1217E+00  0.1639E-01  0.4204E-44
REACH    4        0   140  0.9257E+02  0.1641E+00  0.1138E+00  0.5605E-44
REACH    1        0   141  0.2495E+02  0.9511E-03  0.2237E-01  0.1401E-44
REACH    2        0   141  0.5464E+02  0.2493E-01  0.7930E-01  0.2803E-44
REACH    3        0   141  0.1361E+02  0.1344E-01  0.1625E-01  0.4204E-44
REACH    4        0   141  0.9257E+02  0.1052E+00  0.1134E+00  0.5605E-44
REACH    1        0   142  0.2495E+02  0.8534E-03  0.2136E-01  0.1401E-44
REACH    2        0   142  0.5464E+02  0.2383E-01  0.7669E-01  0.2803E-44
REACH    3        0   142  0.1361E+02  0.1660E-02  0.1556E-01  0.4204E-44
REACH    4        0   142  0.9257E+02  0.9581E-01  0.1126E+00  0.5605E-44
REACH    1        0   143  0.2495E+02  0.7946E-03  0.2040E-01  0.1401E-44
REACH    2        0   143  0.5464E+02  0.2278E-01  0.7416E-01  0.2803E-44
REACH    3        0   143  0.1361E+02  0.1582E-02  0.1491E-01  0.4204E-44
REACH    4        0   143  0.9257E+02  0.9248E-01  0.1116E+00  0.5605E-44
REACH    1        0   144  0.2495E+02  0.2348E-01  0.2054E-01  0.1401E-44
REACH    2        0   144  0.5464E+02  0.4306E-01  0.7270E-01  0.2803E-44
REACH    3        0   144  0.1361E+02  0.1526E-02  0.1428E-01  0.4204E-44
REACH    4        0   144  0.9257E+02  0.9027E-01  0.1106E+00  0.5605E-44
REACH    1        0   145  0.2495E+02  0.1039E-02  0.1963E-01  0.1401E-44
REACH    2        0   145  0.5464E+02  0.2190E-01  0.7032E-01  0.2803E-44
REACH    3        0   145  0.1361E+02  0.1472E-02  0.1368E-01  0.4204E-44
REACH    4        0   145  0.9257E+02  0.8716E-01  0.1095E+00  0.5605E-44
REACH    1        0   146  0.2495E+02  0.8533E-03  0.1875E-01  0.1401E-44
REACH    2        0   146  0.5464E+02  0.2092E-01  0.6799E-01  0.2803E-44
REACH    3        0   146  0.1361E+02  0.1420E-02  0.1310E-01  0.4204E-44
REACH    4        0   146  0.9257E+02  0.8415E-01  0.1083E+00  0.5605E-44
REACH    1        0   147  0.2495E+02  0.7673E-03  0.1790E-01  0.1401E-44
REACH    2        0   147  0.5464E+02  0.2001E-01  0.6574E-01  0.2803E-44
REACH    3        0   147  0.1361E+02  0.1371E-02  0.1255E-01  0.4204E-44
REACH    4        0   147  0.9257E+02  0.8124E-01  0.1070E+00  0.5605E-44
REACH    1        0   148  0.2495E+02  0.7164E-03  0.1710E-01  0.1401E-44
REACH    2        0   148  0.5464E+02  0.1913E-01  0.6355E-01  0.2803E-44
REACH    3        0   148  0.1361E+02  0.1324E-02  0.1202E-01  0.4204E-44
REACH    4        0   148  0.9257E+02  0.7842E-01  0.1057E+00  0.5605E-44
REACH    1        0   149  0.2495E+02  0.6829E-03  0.1633E-01  0.1401E-44
REACH    2        0   149  0.5464E+02  0.1829E-01  0.6142E-01  0.2803E-44
REACH    3        0   149  0.1361E+02  0.1279E-02  0.1152E-01  0.4204E-44
REACH    4        0   149  0.9257E+02  0.7568E-01  0.1043E+00  0.5605E-44
REACH    1        0   150  0.2495E+02  0.6584E-03  0.1559E-01  0.1401E-44
REACH    2        0   150  0.5464E+02  0.1749E-01  0.5936E-01  0.2803E-44
REACH    3        0   150  0.1361E+02  0.1236E-02  0.1103E-01  0.4204E-44
REACH    4        0   150  0.9257E+02  0.7304E-01  0.1028E+00  0.5605E-44
REACH    1        0   151  0.2495E+02  0.1482E+00  0.1033E+00  0.1401E-44
REACH    2        0   151  0.5464E+02  0.2463E+00  0.6812E-01  0.2803E-44
REACH    3        0   151  0.1361E+02  0.1195E-02  0.1057E-01  0.4204E-44
REACH    4        0   151  0.9257E+02  0.8125E-01  0.1018E+00  0.5605E-44
REACH    1        0   152  0.2495E+02  0.3347E+00  0.3268E-01  0.1401E-44
REACH    2        0   152  0.5464E+02  0.3617E+00  0.8188E-01  0.2803E-44
REACH    3        0   152  0.1361E+02  0.1156E-02  0.1013E-01  0.4204E-44
REACH    4        0   152  0.9257E+02  0.9448E-01  0.1014E+00  0.5605E-44
REACH    1        0   153  0.2495E+02  0.3075E-02  0.3123E-01  0.1401E-44
REACH    2        0   153  0.5464E+02  0.3434E-01  0.7964E-01  0.2803E-44
REACH    3        0   153  0.1361E+02  0.7854E-01  0.1333E-01  0.4204E-44
REACH    4        0   153  0.9257E+02  0.1359E+00  0.1030E+00  0.5605E-44
REACH    1        0   154  0.2495E+02  0.1733E-02  0.2985E-01  0.1401E-44
REACH    2        0   154  0.5464E+02  0.3251E-01  0.7743E-01  0.2803E-44
REACH    3        0   154  0.1361E+02  0.3502E-01  0.1435E-01  0.4204E-44
REACH    4        0   154  0.9257E+02  0.1123E+00  0.1035E+00  0.5605E-44
REACH    1        0   155  0.2495E+02  0.1253E-02  0.2851E-01  0.1401E-44
REACH    2        0   155  0.5464E+02  0.3107E-01  0.7525E-01  0.2803E-44
REACH    3        0   155  0.1361E+02  0.1489E-02  0.1374E-01  0.4204E-44
REACH    4        0   155  0.9257E+02  0.9208E-01  0.1029E+00  0.5605E-44
REACH    1        0   156  0.2495E+02  0.1097E+01  0.7942E+00  0.1401E-44
REACH    2        0   156  0.5464E+02  0.1891E+01  0.1603E+00  0.2803E-44
REACH    3        0   156  0.1361E+02  0.3523E-01  0.1475E-01  0.4204E-44
REACH    4        0   156  0.9257E+02  0.1958E+00  0.1073E+00  0.5605E-44
REACH    1        0   157  0.2495E+02  0.5973E-02  0.4161E-01  0.1401E-44
REACH    2        0   157  0.5464E+02  0.4722E-01  0.1550E+00  0.2803E-44
REACH    3        0   157  0.1361E+02  0.1079E+00  0.1911E-01  0.4204E-44
REACH    4        0   157  0.9257E+02  0.2330E+00  0.1132E+00  0.5605E-44
REACH    1        0   158  0.2495E+02  0.5757E-02  0.3993E-01  0.1401E-44
REACH    2        0   158  0.5464E+02  0.4589E-01  0.1499E+00  0.2803E-44
REACH    3        0   158  0.1361E+02  0.1943E-02  0.1831E-01  0.4204E-44
REACH    4        0   158  0.9257E+02  0.1721E+00  0.1159E+00  0.5605E-44
REACH    1        0   159  0.2495E+02  0.3327E-02  0.3821E-01  0.1401E-44
REACH    2        0   159  0.5464E+02  0.4280E-01  0.1449E+00  0.2803E-44
REACH    3        0   159  0.1361E+02  0.1708E-02  0.1753E-01  0.4204E-44
REACH    4        0   159  0.9257E+02  0.1661E+00  0.1183E+00  0.5605E-44
REACH    1        0   160  0.2495E+02  0.3885E+00  0.1048E+00  0.1401E-44
REACH    2        0   160  0.5464E+02  0.4913E+00  0.1611E+00  0.2803E-44
REACH    3        0   160  0.1361E+02  0.1642E-02  0.1678E-01  0.4204E-44
REACH    4        0   160  0.9257E+02  0.1814E+00  0.1212E+00  0.5605E-44
REACH    1        0   161  0.2495E+02  0.3604E-02  0.4985E-01  0.1401E-44
REACH    2        0   161  0.5464E+02  0.5502E-01  0.1561E+00  0.2803E-44
REACH    3        0   161  0.1361E+02  0.1580E-02  0.1607E-01  0.4204E-44
REACH    4        0   161  0.9257E+02  0.1756E+00  0.1237E+00  0.5605E-44
REACH    1        0   162  0.2495E+02  0.2157E-02  0.4762E-01  0.1401E-44
REACH    2        0   162  0.5464E+02  0.5218E-01  0.1513E+00  0.2803E-44
REACH    3        0   162  0.1361E+02  0.1521E-02  0.1538E-01  0.4204E-44
REACH    4        0   162  0.9257E+02  0.1699E+00  0.1259E+00  0.5605E-44
REACH    1        0   163  0.2495E+02  0.1647E-02  0.4546E-01  0.1401E-44
REACH    2        0   163  0.5464E+02  0.4984E-01  0.1465E+00  0.2803E-44
REACH    3        0   163  0.1361E+02  0.2556E-01  0.1586E-01  0.4204E-44
REACH    4        0   163  0.9257E+02  0.1781E+00  0.1283E+00  0.5605E-44
REACH    1        0   164  0.2495E+02  0.2108E+01  0.1810E+01  0.1401E-44
REACH    2        0   164  0.5464E+02  0.3917E+01  0.3232E+00  0.2803E-44
REACH    3        0   164  0.1361E+02  0.1534E-02  0.1519E-01  0.4204E-44
REACH    4        0   164  0.9257E+02  0.3416E+00  0.1383E+00  0.5605E-44
REACH    1        0   165  0.2495E+02  0.1396E-01  0.5787E-01  0.1401E-44
REACH    2        0   165  0.5464E+02  0.7009E-01  0.3114E+00  0.2803E-44
REACH    3        0   165  0.1361E+02  0.1441E-02  0.1454E-01  0.4204E-44
REACH    4        0   165  0.9257E+02  0.3290E+00  0.1472E+00  0.5605E-44
REACH    1        0   166  0.2495E+02  0.6747E-02  0.5548E-01  0.1401E-44
REACH    2        0   166  0.5464E+02  0.6501E-01  0.2998E+00  0.2803E-44
REACH    3        0   166  0.1361E+02  0.1388E-02  0.1392E-01  0.4204E-44
REACH    4        0   166  0.9257E+02  0.3167E+00  0.1552E+00  0.5605E-44
REACH    1        0   167  0.2495E+02  0.1809E-01  0.5372E-01  0.1401E-44
REACH    2        0   167  0.5464E+02  0.7435E-01  0.2892E+00  0.2803E-44
REACH    3        0   167  0.1361E+02  0.1338E-02  0.1333E-01  0.4204E-44
REACH    4        0   167  0.9257E+02  0.3054E+00  0.1622E+00  0.5605E-44
REACH    1        0   168  0.2495E+02  0.1860E+00  0.1759E+00  0.1401E-44
REACH    2        0   168  0.5464E+02  0.3631E+00  0.2927E+00  0.2803E-44
REACH    3        0   168  0.1361E+02  0.1586E+00  0.2014E-01  0.4204E-44
REACH    4        0   168  0.9257E+02  0.3979E+00  0.1733E+00  0.5605E-44
REACH    1        0   169  0.2495E+02  0.1191E+01  0.9110E+00  0.1401E-44
REACH    2        0   169  0.5464E+02  0.2101E+01  0.3774E+00  0.2803E-44
REACH    3        0   169  0.1361E+02  0.6148E-01  0.2207E-01  0.4204E-44
REACH    4        0   169  0.9257E+02  0.4345E+00  0.1855E+00  0.5605E-44
REACH    1        0   170  0.2495E+02  0.1163E-01  0.6528E-01  0.1401E-44
REACH    2        0   170  0.5464E+02  0.7869E-01  0.3634E+00  0.2803E-44
REACH    3        0   170  0.1361E+02  0.1990E-02  0.2113E-01  0.4204E-44
REACH    4        0   170  0.9257E+02  0.3887E+00  0.1950E+00  0.5605E-44
REACH    1        0   171  0.2495E+02  0.2510E-01  0.6340E-01  0.1401E-44
REACH    2        0   171  0.5464E+02  0.9126E-01  0.3507E+00  0.2803E-44
REACH    3        0   171  0.1361E+02  0.1821E-02  0.2022E-01  0.4204E-44
REACH    4        0   171  0.9257E+02  0.3748E+00  0.2034E+00  0.5605E-44
REACH    1        0   172  0.2495E+02  0.1360E+00  0.1373E+00  0.1401E-44
REACH    2        0   172  0.5464E+02  0.2757E+00  0.3472E+00  0.2803E-44
REACH    3        0   172  0.1361E+02  0.1749E-02  0.1936E-01  0.4204E-44
REACH    4        0   172  0.9257E+02  0.3703E+00  0.2112E+00  0.5605E-44
REACH    1        0   173  0.2495E+02  0.4581E-02  0.6058E-01  0.1401E-44
REACH    2        0   173  0.5464E+02  0.7168E-01  0.3342E+00  0.2803E-44
REACH    3        0   173  0.1361E+02  0.1682E-02  0.1853E-01  0.4204E-44
REACH    4        0   173  0.9257E+02  0.3564E+00  0.2180E+00  0.5605E-44
REACH    1        0   174  0.2495E+02  0.3448E-02  0.5790E-01  0.1401E-44
REACH    2        0   174  0.5464E+02  0.6840E-01  0.3218E+00  0.2803E-44
REACH    3        0   174  0.1361E+02  0.1618E-02  0.1773E-01  0.4204E-44
REACH    4        0   174  0.9257E+02  0.3430E+00  0.2239E+00  0.5605E-44
REACH    1        0   175  0.2495E+02  0.2923E-02  0.5532E-01  0.1401E-44
REACH    2        0   175  0.5464E+02  0.6538E-01  0.3098E+00  0.2803E-44
REACH    3        0   175  0.1361E+02  0.7521E-01  0.2042E-01  0.4204E-44
REACH    4        0   175  0.9257E+02  0.3721E+00  0.2308E+00  0.5605E-44
REACH    1        0   176  0.2495E+02  0.2872E+01  0.2578E+01  0.1401E-44
REACH    2        0   176  0.5464E+02  0.5383E+01  0.5475E+00  0.2803E-44
REACH    3        0   176  0.1361E+02  0.3525E-01  0.2112E-01  0.4204E-44
REACH    4        0   176  0.9257E+02  0.5899E+00  0.2476E+00  0.5605E-44
REACH    1        0   177  0.2495E+02  0.1689E+01  0.1419E+01  0.1401E-44
REACH    2        0   177  0.5464E+02  0.3008E+01  0.6628E+00  0.2803E-44
REACH    3        0   177  0.1361E+02  0.1883E-02  0.2022E-01  0.4204E-44
REACH    4        0   177  0.9257E+02  0.6869E+00  0.2682E+00  0.5605E-44
REACH    1        0   178  0.2495E+02  0.2222E-01  0.8013E-01  0.1401E-44
REACH    2        0   178  0.5464E+02  0.1031E+00  0.6366E+00  0.2803E-44
REACH    3        0   178  0.1361E+02  0.6799E-01  0.2245E-01  0.4204E-44
REACH    4        0   178  0.9257E+02  0.6975E+00  0.2883E+00  0.5605E-44
REACH    1        0   179  0.2495E+02  0.1223E-01  0.7695E-01  0.1401E-44
REACH    2        0   179  0.5464E+02  0.9730E-01  0.6113E+00  0.2803E-44
REACH    3        0   179  0.1361E+02  0.2043E-02  0.2150E-01  0.4204E-44
REACH    4        0   179  0.9257E+02  0.6369E+00  0.3047E+00  0.5605E-44
REACH    1        0   180  0.2495E+02  0.8253E-02  0.7373E-01  0.1401E-44
REACH    2        0   180  0.5464E+02  0.9318E-01  0.5870E+00  0.2803E-44
REACH    3        0   180  0.1361E+02  0.1186E+00  0.2605E-01  0.4204E-44
REACH    4        0   180  0.9257E+02  0.6782E+00  0.3222E+00  0.5605E-44
REACH    1        0   181  0.2495E+02  0.6211E-02  0.7056E-01  0.1401E-44
REACH    2        0   181  0.5464E+02  0.8917E-01  0.5637E+00  0.2803E-44
REACH    3        0   181  0.1361E+02  0.2370E-02  0.2493E-01  0.4204E-44
REACH    4        0   181  0.9257E+02  0.5933E+00  0.3349E+00  0.5605E-44
REACH    1        0   182  0.2495E+02  0.5120E-02  0.6749E-01  0.1401E-44
REACH    2        0   182  0.5464E+02  0.8529E-01  0.5412E+00  0.2803E-44
REACH    3        0   182  0.1361E+02  0.7946E-02  0.2414E-01  0.4204E-44
REACH    4        0   182  0.9257E+02  0.5729E+00  0.3460E+00  0.5605E-44
REACH    1        0   183  0.2495E+02  0.4509E-02  0.6454E-01  0.1401E-44
REACH    2        0   183  0.5464E+02  0.8157E-01  0.5197E+00  0.2803E-44
REACH    3        0   183  0.1361E+02  0.2324E-01  0.2410E-01  0.4204E-44
REACH    4        0   183  0.9257E+02  0.5593E+00  0.3560E+00  0.5605E-44
REACH    1        0   184  0.2495E+02  0.4143E-02  0.6171E-01  0.1401E-44
REACH    2        0   184  0.5464E+02  0.7802E-01  0.4990E+00  0.2803E-44
REACH    3        0   184  0.1361E+02  0.2106E-02  0.2306E-01  0.4204E-44
REACH    4        0   184  0.9257E+02  0.5265E+00  0.3640E+00  0.5605E-44
REACH    1        0   185  0.2495E+02  0.3906E-02  0.5900E-01  0.1401E-44
REACH    2        0   185  0.5464E+02  0.7462E-01  0.4791E+00  0.2803E-44
REACH    3        0   185  0.1361E+02  0.1990E-02  0.2207E-01  0.4204E-44
REACH    4        0   185  0.9257E+02  0.5054E+00  0.3706E+00  0.5605E-44
REACH    1        0   186  0.2495E+02  0.3738E-02  0.5641E-01  0.1401E-44
REACH    2        0   186  0.5464E+02  0.7137E-01  0.4600E+00  0.2803E-44
REACH    3        0   186  0.1361E+02  0.1912E-02  0.2113E-01  0.4204E-44
REACH    4        0   186  0.9257E+02  0.4852E+00  0.3760E+00  0.5605E-44
REACH    1        0   187  0.2495E+02  0.3608E-02  0.5394E-01  0.1401E-44
REACH    2        0   187  0.5464E+02  0.6828E-01  0.4416E+00  0.2803E-44
REACH    3        0   187  0.1361E+02  0.1231E-01  0.2071E-01  0.4204E-44
REACH    4        0   187  0.9257E+02  0.4717E+00  0.3804E+00  0.5605E-44
REACH    1        0   188  0.2495E+02  0.3499E-02  0.5157E-01  0.1401E-44
REACH    2        0   188  0.5464E+02  0.6532E-01  0.4240E+00  0.2803E-44
REACH    3        0   188  0.1361E+02  0.1819E-02  0.1983E-01  0.4204E-44
REACH    4        0   188  0.9257E+02  0.4476E+00  0.3836E+00  0.5605E-44
REACH    1        0   189  0.2495E+02  0.3404E-02  0.4932E-01  0.1401E-44
REACH    2        0   189  0.5464E+02  0.6250E-01  0.4070E+00  0.2803E-44
REACH    3        0   189  0.1361E+02  0.1734E-02  0.1898E-01  0.4204E-44
REACH    4        0   189  0.9257E+02  0.4297E+00  0.3857E+00  0.5605E-44
REACH    1        0   190  0.2495E+02  0.3317E-02  0.4716E-01  0.1401E-44
REACH    2        0   190  0.5464E+02  0.5981E-01  0.3908E+00  0.2803E-44
REACH    3        0   190  0.1361E+02  0.1668E-02  0.1816E-01  0.4204E-44
REACH    4        0   190  0.9257E+02  0.4124E+00  0.3870E+00  0.5605E-44
REACH    1        0   191  0.2495E+02  0.3235E-02  0.4510E-01  0.1401E-44
REACH    2        0   191  0.5464E+02  0.5725E-01  0.3751E+00  0.2803E-44
REACH    3        0   191  0.1361E+02  0.1990E+00  0.2663E-01  0.4204E-44
REACH    4        0   191  0.9257E+02  0.5084E+00  0.3926E+00  0.5605E-44
REACH    1        0   192  0.2495E+02  0.3157E-02  0.4313E-01  0.1401E-44
REACH    2        0   192  0.5464E+02  0.5480E-01  0.3601E+00  0.2803E-44
REACH    3        0   192  0.1361E+02  0.1313E-01  0.2600E-01  0.4204E-44
REACH    4        0   192  0.9257E+02  0.3964E+00  0.3928E+00  0.5605E-44
REACH    1        0   193  0.2495E+02  0.3083E-02  0.4126E-01  0.1401E-44
REACH    2        0   193  0.5464E+02  0.5246E-01  0.3457E+00  0.2803E-44
REACH    3        0   193  0.1361E+02  0.5725E-02  0.2505E-01  0.4204E-44
REACH    4        0   193  0.9257E+02  0.3772E+00  0.3921E+00  0.5605E-44
REACH    1        0   194  0.2495E+02  0.3010E-02  0.3946E-01  0.1401E-44
REACH    2        0   194  0.5464E+02  0.5023E-01  0.3318E+00  0.2803E-44
REACH    3        0   194  0.1361E+02  0.9108E-02  0.2430E-01  0.4204E-44
REACH    4        0   194  0.9257E+02  0.3643E+00  0.3908E+00  0.5605E-44
REACH    1        0   195  0.2495E+02  0.2940E-02  0.3775E-01  0.1401E-44
REACH    2        0   195  0.5464E+02  0.4810E-01  0.3185E+00  0.2803E-44
REACH    3        0   195  0.1361E+02  0.2070E-02  0.2326E-01  0.4204E-44
REACH    4        0   195  0.9257E+02  0.3462E+00  0.3887E+00  0.5605E-44
REACH    1        0   196  0.2495E+02  0.2871E-02  0.3612E-01  0.1401E-44
REACH    2        0   196  0.5464E+02  0.4607E-01  0.3057E+00  0.2803E-44
REACH    3        0   196  0.1361E+02  0.1978E-02  0.2226E-01  0.4204E-44
REACH    4        0   196  0.9257E+02  0.3322E+00  0.3860E+00  0.5605E-44
REACH    1        0   197  0.2495E+02  0.2804E-02  0.3456E-01  0.1401E-44
REACH    2        0   197  0.5464E+02  0.4413E-01  0.2935E+00  0.2803E-44
REACH    3        0   197  0.1361E+02  0.1801E-01  0.2206E-01  0.4204E-44
REACH    4        0   197  0.9257E+02  0.3280E+00  0.3833E+00  0.5605E-44
REACH    1        0   198  0.2495E+02  0.2739E-02  0.3306E-01  0.1401E-44
REACH    2        0   198  0.5464E+02  0.4228E-01  0.2817E+00  0.2803E-44
REACH    3        0   198  0.1361E+02  0.1913E-02  0.2111E-01  0.4204E-44
REACH    4        0   198  0.9257E+02  0.3068E+00  0.3797E+00  0.5605E-44
REACH    1        0   199  0.2495E+02  0.2676E-02  0.3164E-01  0.1401E-44
REACH    2        0   199  0.5464E+02  0.4051E-01  0.2704E+00  0.2803E-44
REACH    3        0   199  0.1361E+02  0.1816E-02  0.2021E-01  0.4204E-44
REACH    4        0   199  0.9257E+02  0.2945E+00  0.3757E+00  0.5605E-44
REACH    1        0   200  0.2495E+02  0.4763E+00  0.1844E+00  0.1401E-44
REACH    2        0   200  0.5464E+02  0.6635E+00  0.2888E+00  0.2803E-44
REACH    3        0   200  0.1361E+02  0.1941E+00  0.2835E-01  0.4204E-44
REACH    4        0   200  0.9257E+02  0.4214E+00  0.3778E+00  0.5605E-44
REACH    1        0   201  0.2495E+02  0.5044E-02  0.4403E-01  0.1401E-44
REACH    2        0   201  0.5464E+02  0.5369E-01  0.2778E+00  0.2803E-44
REACH    3        0   201  0.1361E+02  0.2580E-02  0.2714E-01  0.4204E-44
REACH    4        0   201  0.9257E+02  0.3099E+00  0.3746E+00  0.5605E-44
REACH    1        0   202  0.2495E+02  0.7043E+00  0.4207E+00  0.1401E-44
REACH    2        0   202  0.5464E+02  0.1128E+01  0.3176E+00  0.2803E-44
REACH    3        0   202  0.1361E+02  0.2186E-02  0.2597E-01  0.4204E-44
REACH    4        0   202  0.9257E+02  0.3483E+00  0.3734E+00  0.5605E-44
REACH    1        0   203  0.2495E+02  0.6506E-02  0.5552E-01  0.1401E-44
REACH    2        0   203  0.5464E+02  0.6607E-01  0.3058E+00  0.2803E-44
REACH    3        0   203  0.1361E+02  0.5359E-02  0.2500E-01  0.4204E-44
REACH    4        0   203  0.9257E+02  0.3370E+00  0.3717E+00  0.5605E-44
REACH    1        0   204  0.2495E+02  0.2971E+00  0.6684E-01  0.1401E-44
REACH    2        0   204  0.5464E+02  0.3654E+00  0.3086E+00  0.2803E-44
REACH    3        0   204  0.1361E+02  0.2734E+00  0.3665E-01  0.4204E-44
REACH    4        0   204  0.9257E+02  0.4919E+00  0.3773E+00  0.5605E-44
REACH    1        0   205  0.2495E+02  0.5175E-02  0.6395E-01  0.1401E-44
REACH    2        0   205  0.5464E+02  0.7400E-01  0.2976E+00  0.2803E-44
REACH    3        0   205  0.1361E+02  0.3409E-02  0.3509E-01  0.4204E-44
REACH    4        0   205  0.9257E+02  0.3393E+00  0.3755E+00  0.5605E-44
REACH    1        0   206  0.2495E+02  0.3785E-02  0.6113E-01  0.1401E-44
REACH    2        0   206  0.5464E+02  0.7051E-01  0.2870E+00  0.2803E-44
REACH    3        0   206  0.1361E+02  0.2858E-02  0.3357E-01  0.4204E-44
REACH    4        0   206  0.9257E+02  0.3267E+00  0.3732E+00  0.5605E-44
REACH    1        0   207  0.2495E+02  0.3230E-02  0.5842E-01  0.1401E-44
REACH    2        0   207  0.5464E+02  0.6744E-01  0.2767E+00  0.2803E-44
REACH    3        0   207  0.1361E+02  0.2738E-02  0.3213E-01  0.4204E-44
REACH    4        0   207  0.9257E+02  0.3147E+00  0.3705E+00  0.5605E-44
REACH    1        0   208  0.2495E+02  0.2919E-02  0.5582E-01  0.1401E-44
REACH    2        0   208  0.5464E+02  0.6450E-01  0.2667E+00  0.2803E-44
REACH    3        0   208  0.1361E+02  0.7247E+00  0.6458E-01  0.4204E-44
REACH    4        0   208  0.9257E+02  0.7082E+00  0.3863E+00  0.5605E-44
REACH    1        0   209  0.2495E+02  0.5120E-01  0.5560E-01  0.1401E-44
REACH    2        0   209  0.5464E+02  0.1091E+00  0.2593E+00  0.2803E-44
REACH    3        0   209  0.1361E+02  0.6937E-02  0.6188E-01  0.4204E-44
REACH    4        0   209  0.9257E+02  0.3343E+00  0.3838E+00  0.5605E-44
REACH    1        0   210  0.2495E+02  0.1225E-01  0.5357E-01  0.1401E-44
REACH    2        0   210  0.5464E+02  0.6895E-01  0.2504E+00  0.2803E-44
REACH    3        0   210  0.1361E+02  0.5562E-02  0.5924E-01  0.4204E-44
REACH    4        0   210  0.9257E+02  0.3219E+00  0.3809E+00  0.5605E-44
REACH    1        0   211  0.2495E+02  0.3017E-02  0.5120E-01  0.1401E-44
REACH    2        0   211  0.5464E+02  0.5910E-01  0.2414E+00  0.2803E-44
REACH    3        0   211  0.1361E+02  0.5311E-02  0.5671E-01  0.4204E-44
REACH    4        0   211  0.9257E+02  0.3098E+00  0.3776E+00  0.5605E-44
REACH    1        0   212  0.2495E+02  0.6987E-01  0.6265E-01  0.1401E-44
REACH    2        0   212  0.5464E+02  0.1338E+00  0.2364E+00  0.2803E-44
REACH    3        0   212  0.1361E+02  0.8728E-01  0.5814E-01  0.4204E-44
REACH    4        0   212  0.9257E+02  0.3487E+00  0.3762E+00  0.5605E-44
REACH    1        0   213  0.2495E+02  0.1080E+01  0.7986E+00  0.1401E-44
REACH    2        0   213  0.5464E+02  0.1883E+01  0.3135E+00  0.2803E-44
REACH    3        0   213  0.1361E+02  0.5262E-02  0.5566E-01  0.4204E-44
REACH    4        0   213  0.9257E+02  0.3805E+00  0.3764E+00  0.5605E-44
REACH    1        0   214  0.2495E+02  0.7901E-02  0.6263E-01  0.1401E-44
REACH    2        0   214  0.5464E+02  0.7354E-01  0.3023E+00  0.2803E-44
REACH    3        0   214  0.1361E+02  0.4908E-02  0.5328E-01  0.4204E-44
REACH    4        0   214  0.9257E+02  0.3663E+00  0.3759E+00  0.5605E-44
REACH    1        0   215  0.2495E+02  0.8500E-01  0.8771E-01  0.1401E-44
REACH    2        0   215  0.5464E+02  0.1737E+00  0.2963E+00  0.2803E-44
REACH    3        0   215  0.1361E+02  0.4694E-02  0.5101E-01  0.4204E-44
REACH    4        0   215  0.9257E+02  0.3576E+00  0.3751E+00  0.5605E-44
REACH    1        0   216  0.2495E+02  0.4364E-02  0.5977E-01  0.1401E-44
REACH    2        0   216  0.5464E+02  0.6908E-01  0.2856E+00  0.2803E-44
REACH    3        0   216  0.1361E+02  0.4492E-02  0.4882E-01  0.4204E-44
REACH    4        0   216  0.9257E+02  0.3443E+00  0.3736E+00  0.5605E-44
REACH    1        0   217  0.2495E+02  0.4931E-01  0.5928E-01  0.1401E-44
REACH    2        0   217  0.5464E+02  0.1107E+00  0.2774E+00  0.2803E-44
REACH    3        0   217  0.1361E+02  0.4301E-02  0.4674E-01  0.4204E-44
REACH    4        0   217  0.9257E+02  0.3336E+00  0.3717E+00  0.5605E-44
REACH    1        0   218  0.2495E+02  0.3506E-02  0.5666E-01  0.1401E-44
REACH    2        0   218  0.5464E+02  0.6537E-01  0.2675E+00  0.2803E-44
REACH    3        0   218  0.1361E+02  0.4119E-02  0.4474E-01  0.4204E-44
REACH    4        0   218  0.9257E+02  0.3212E+00  0.3694E+00  0.5605E-44
REACH    1        0   219  0.2495E+02  0.2996E-02  0.5415E-01  0.1401E-44
REACH    2        0   219  0.5464E+02  0.6250E-01  0.2579E+00  0.2803E-44
REACH    3        0   219  0.1361E+02  0.3947E-02  0.4282E-01  0.4204E-44
REACH    4        0   219  0.9257E+02  0.3093E+00  0.3665E+00  0.5605E-44
REACH    1        0   220  0.2495E+02  0.6749E+00  0.4016E+00  0.1401E-44
REACH    2        0   220  0.5464E+02  0.1080E+01  0.2964E+00  0.2803E-44
REACH    3        0   220  0.1361E+02  0.3783E-02  0.4099E-01  0.4204E-44
REACH    4        0   220  0.9257E+02  0.3456E+00  0.3656E+00  0.5605E-44
REACH    1        0   221  0.2495E+02  0.5953E-02  0.6466E-01  0.1401E-44
REACH    2        0   221  0.5464E+02  0.7458E-01  0.2860E+00  0.2803E-44
REACH    3        0   221  0.1361E+02  0.3628E-02  0.3924E-01  0.4204E-44
REACH    4        0   221  0.9257E+02  0.3332E+00  0.3640E+00  0.5605E-44
REACH    1        0   222  0.2495E+02  0.3893E-02  0.6181E-01  0.1401E-44
REACH    2        0   222  0.5464E+02  0.7067E-01  0.2759E+00  0.2803E-44
REACH    3        0   222  0.1361E+02  0.3480E-02  0.3756E-01  0.4204E-44
REACH    4        0   222  0.9257E+02  0.3211E+00  0.3620E+00  0.5605E-44
REACH    1        0   223  0.2495E+02  0.3228E-02  0.5906E-01  0.1401E-44
REACH    2        0   223  0.5464E+02  0.6759E-01  0.2661E+00  0.2803E-44
REACH    3        0   223  0.1361E+02  0.3340E-02  0.3596E-01  0.4204E-44
REACH    4        0   223  0.9257E+02  0.3094E+00  0.3595E+00  0.5605E-44
REACH    1        0   224  0.2495E+02  0.2867E-02  0.5643E-01  0.1401E-44
REACH    2        0   224  0.5464E+02  0.6464E-01  0.2567E+00  0.2803E-44
REACH    3        0   224  0.1361E+02  0.3207E-02  0.3442E-01  0.4204E-44
REACH    4        0   224  0.9257E+02  0.2981E+00  0.3566E+00  0.5605E-44
REACH    1        0   225  0.2495E+02  0.6563E+00  0.3861E+00  0.1401E-44
REACH    2        0   225  0.5464E+02  0.1045E+01  0.2936E+00  0.2803E-44
REACH    3        0   225  0.1361E+02  0.3080E-02  0.3295E-01  0.4204E-44
REACH    4        0   225  0.9257E+02  0.3333E+00  0.3555E+00  0.5605E-44
REACH    1        0   226  0.2495E+02  0.2631E+00  0.2657E+00  0.1401E-44
REACH    2        0   226  0.5464E+02  0.5289E+00  0.3046E+00  0.2803E-44
REACH    3        0   226  0.1361E+02  0.2536E-01  0.3259E-01  0.4204E-44
REACH    4        0   226  0.9257E+02  0.3554E+00  0.3555E+00  0.5605E-44
REACH    1        0   227  0.2495E+02  0.2451E+00  0.2483E+00  0.1401E-44
REACH    2        0   227  0.5464E+02  0.4928E+00  0.3135E+00  0.2803E-44
REACH    3        0   227  0.1361E+02  0.1595E+00  0.3854E-01  0.4204E-44
REACH    4        0   227  0.9257E+02  0.4403E+00  0.3595E+00  0.5605E-44
REACH    1        0   228  0.2495E+02  0.6237E-02  0.6644E-01  0.1401E-44
REACH    2        0   228  0.5464E+02  0.7703E-01  0.3024E+00  0.2803E-44
REACH    3        0   228  0.1361E+02  0.3588E-02  0.3690E-01  0.4204E-44
REACH    4        0   228  0.9257E+02  0.3467E+00  0.3589E+00  0.5605E-44
REACH    1        0   229  0.2495E+02  0.4391E-02  0.6353E-01  0.1401E-44
REACH    2        0   229  0.5464E+02  0.7348E-01  0.2916E+00  0.2803E-44
REACH    3        0   229  0.1361E+02  0.3209E-02  0.3532E-01  0.4204E-44
REACH    4        0   229  0.9257E+02  0.3340E+00  0.3577E+00  0.5605E-44
REACH    1        0   230  0.2495E+02  0.3579E-02  0.6072E-01  0.1401E-44
REACH    2        0   230  0.5464E+02  0.7029E-01  0.2813E+00  0.2803E-44
REACH    3        0   230  0.1361E+02  0.3082E-02  0.3381E-01  0.4204E-44
REACH    4        0   230  0.9257E+02  0.3218E+00  0.3560E+00  0.5605E-44
REACH    1        0   231  0.2495E+02  0.3138E-02  0.5802E-01  0.1401E-44
REACH    2        0   231  0.5464E+02  0.6723E-01  0.2712E+00  0.2803E-44
REACH    3        0   231  0.1361E+02  0.2961E-02  0.3236E-01  0.4204E-44
REACH    4        0   231  0.9257E+02  0.3101E+00  0.3539E+00  0.5605E-44
REACH    1        0   232  0.2495E+02  0.2882E-02  0.5544E-01  0.1401E-44
REACH    2        0   232  0.5464E+02  0.6430E-01  0.2615E+00  0.2803E-44
REACH    3        0   232  0.1361E+02  0.2847E-02  0.3098E-01  0.4204E-44
REACH    4        0   232  0.9257E+02  0.2987E+00  0.3513E+00  0.5605E-44
REACH    1        0   233  0.2495E+02  0.1455E+01  0.1173E+01  0.1401E-44
REACH    2        0   233  0.5464E+02  0.2634E+01  0.3727E+00  0.2803E-44
REACH    3        0   233  0.1361E+02  0.3014E-01  0.3094E-01  0.4204E-44
REACH    4        0   233  0.9257E+02  0.4239E+00  0.3547E+00  0.5605E-44
REACH    1        0   234  0.2495E+02  0.1051E-01  0.6648E-01  0.1401E-44
REACH    2        0   234  0.5464E+02  0.8015E-01  0.3590E+00  0.2803E-44
REACH    3        0   234  0.1361E+02  0.2767E-02  0.2962E-01  0.4204E-44
REACH    4        0   234  0.9257E+02  0.3946E+00  0.3565E+00  0.5605E-44
REACH    1        0   235  0.2495E+02  0.5939E-02  0.6364E-01  0.1401E-44
REACH    2        0   235  0.5464E+02  0.7527E-01  0.3457E+00  0.2803E-44
REACH    3        0   235  0.1361E+02  0.2621E-02  0.2835E-01  0.4204E-44
REACH    4        0   235  0.9257E+02  0.3797E+00  0.3576E+00  0.5605E-44
REACH    1        0   236  0.2495E+02  0.7576E-01  0.8014E-01  0.1401E-44
REACH    2        0   236  0.5464E+02  0.1605E+00  0.3370E+00  0.2803E-44
REACH    3        0   236  0.1361E+02  0.2523E-02  0.2714E-01  0.4204E-44
REACH    4        0   236  0.9257E+02  0.3696E+00  0.3582E+00  0.5605E-44
REACH    1        0   237  0.2495E+02  0.4320E-02  0.6065E-01  0.1401E-44
REACH    2        0   237  0.5464E+02  0.7154E-01  0.3246E+00  0.2803E-44
REACH    3        0   237  0.1361E+02  0.9252E-01  0.3020E-01  0.4204E-44
REACH    4        0   237  0.9257E+02  0.4072E+00  0.3605E+00  0.5605E-44
REACH    1        0   238  0.2495E+02  0.3572E-02  0.5797E-01  0.1401E-44
REACH    2        0   238  0.5464E+02  0.6837E-01  0.3126E+00  0.2803E-44
REACH    3        0   238  0.1361E+02  0.2771E-02  0.2891E-01  0.4204E-44
REACH    4        0   238  0.9257E+02  0.3472E+00  0.3598E+00  0.5605E-44
REACH    1        0   239  0.2495E+02  0.3202E-02  0.5541E-01  0.1401E-44
REACH    2        0   239  0.5464E+02  0.6540E-01  0.3010E+00  0.2803E-44
REACH    3        0   239  0.1361E+02  0.2530E-02  0.2768E-01  0.4204E-44
REACH    4        0   239  0.9257E+02  0.3341E+00  0.3586E+00  0.5605E-44
REACH    1        0   240  0.2495E+02  0.2980E-02  0.5295E-01  0.1401E-44
REACH    2        0   240  0.5464E+02  0.6256E-01  0.2898E+00  0.2803E-44
REACH    3        0   240  0.1361E+02  0.2436E-02  0.2649E-01  0.4204E-44
REACH    4        0   240  0.9257E+02  0.3216E+00  0.3569E+00  0.5605E-44
REACH    1        0   241  0.2495E+02  0.2833E-02  0.5060E-01  0.1401E-44
REACH    2        0   241  0.5464E+02  0.5985E-01  0.2790E+00  0.2803E-44
REACH    3        0   241  0.1361E+02  0.2346E-02  0.2536E-01  0.4204E-44
REACH    4        0   241  0.9257E+02  0.3095E+00  0.3546E+00  0.5605E-44
REACH    1        0   242  0.2495E+02  0.2726E-02  0.4836E-01  0.1401E-44
REACH    2        0   242  0.5464E+02  0.5726E-01  0.2686E+00  0.2803E-44
REACH    3        0   242  0.1361E+02  0.2261E-02  0.2428E-01  0.4204E-44
REACH    4        0   242  0.9257E+02  0.2978E+00  0.3520E+00  0.5605E-44
REACH    1        0   243  0.2495E+02  0.2641E-02  0.4621E-01  0.1401E-44
REACH    2        0   243  0.5464E+02  0.5479E-01  0.2586E+00  0.2803E-44
REACH    3        0   243  0.1361E+02  0.2179E-02  0.2324E-01  0.4204E-44
REACH    4        0   243  0.9257E+02  0.2866E+00  0.3489E+00  0.5605E-44
REACH    1        0   244  0.2495E+02  0.6301E-01  0.5137E-01  0.1401E-44
REACH    2        0   244  0.5464E+02  0.1180E+00  0.2520E+00  0.2803E-44
REACH    3        0   244  0.1361E+02  0.2101E-02  0.2225E-01  0.4204E-44
REACH    4        0   244  0.9257E+02  0.2788E+00  0.3456E+00  0.5605E-44
REACH    1        0   245  0.2495E+02  0.3048E-02  0.4473E-01  0.1401E-44
REACH    2        0   245  0.5464E+02  0.5281E-01  0.2427E+00  0.2803E-44
REACH    3        0   245  0.1361E+02  0.1200E-01  0.2177E-01  0.4204E-44
REACH    4        0   245  0.9257E+02  0.2740E+00  0.3422E+00  0.5605E-44
REACH    1        0   246  0.2495E+02  0.2694E-02  0.4276E-01  0.1401E-44
REACH    2        0   246  0.5464E+02  0.5049E-01  0.2336E+00  0.2803E-44
REACH    3        0   246  0.1361E+02  0.1865E-01  0.2162E-01  0.4204E-44
REACH    4        0   246  0.9257E+02  0.2683E+00  0.3388E+00  0.5605E-44
REACH    1        0   247  0.2495E+02  0.2526E-02  0.4088E-01  0.1401E-44
REACH    2        0   247  0.5464E+02  0.4833E-01  0.2250E+00  0.2803E-44
REACH    3        0   247  0.1361E+02  0.2009E-02  0.2070E-01  0.4204E-44
REACH    4        0   247  0.9257E+02  0.2500E+00  0.3346E+00  0.5605E-44
REACH    1        0   248  0.2495E+02  0.2415E-02  0.3907E-01  0.1401E-44
REACH    2        0   248  0.5464E+02  0.4626E-01  0.2166E+00  0.2803E-44
REACH    3        0   248  0.1361E+02  0.1914E-02  0.1982E-01  0.4204E-44
REACH    4        0   248  0.9257E+02  0.2405E+00  0.3302E+00  0.5605E-44
REACH    1        0   249  0.2495E+02  0.2333E-02  0.3735E-01  0.1401E-44
REACH    2        0   249  0.5464E+02  0.4429E-01  0.2085E+00  0.2803E-44
REACH    3        0   249  0.1361E+02  0.1848E-02  0.1897E-01  0.4204E-44
REACH    4        0   249  0.9257E+02  0.2315E+00  0.3256E+00  0.5605E-44
REACH    1        0   250  0.2495E+02  0.2265E-02  0.3571E-01  0.1401E-44
REACH    2        0   250  0.5464E+02  0.4240E-01  0.2007E+00  0.2803E-44
REACH    3        0   250  0.1361E+02  0.1785E-02  0.1817E-01  0.4204E-44
REACH    4        0   250  0.9257E+02  0.2227E+00  0.3207E+00  0.5605E-44
REACH    1        0   251  0.2495E+02  0.3967E-02  0.3422E-01  0.1401E-44
REACH    2        0   251  0.5464E+02  0.4193E-01  0.1933E+00  0.2803E-44
REACH    3        0   251  0.1361E+02  0.1725E-02  0.1739E-01  0.4204E-44
REACH    4        0   251  0.9257E+02  0.2144E+00  0.3157E+00  0.5605E-44
REACH    1        0   252  0.2495E+02  0.2474E-02  0.3273E-01  0.1401E-44
REACH    2        0   252  0.5464E+02  0.3900E-01  0.1860E+00  0.2803E-44
REACH    3        0   252  0.1361E+02  0.1668E-02  0.1666E-01  0.4204E-44
REACH    4        0   252  0.9257E+02  0.2063E+00  0.3106E+00  0.5605E-44
REACH    1        0   253  0.2495E+02  0.2227E-02  0.3130E-01  0.1401E-44
REACH    2        0   253  0.5464E+02  0.3734E-01  0.1791E+00  0.2803E-44
REACH    3        0   253  0.1361E+02  0.1613E-02  0.1595E-01  0.4204E-44
REACH    4        0   253  0.9257E+02  0.1985E+00  0.3053E+00  0.5605E-44
REACH    1        0   254  0.2495E+02  0.2116E-02  0.2993E-01  0.1401E-44
REACH    2        0   254  0.5464E+02  0.3577E-01  0.1723E+00  0.2803E-44
REACH    3        0   254  0.1361E+02  0.1560E-02  0.1527E-01  0.4204E-44
REACH    4        0   254  0.9257E+02  0.1910E+00  0.3000E+00  0.5605E-44
REACH    1        0   255  0.2495E+02  0.3763E-02  0.2871E-01  0.1401E-44
REACH    2        0   255  0.5464E+02  0.3557E-01  0.1659E+00  0.2803E-44
REACH    3        0   255  0.1361E+02  0.1509E-02  0.1463E-01  0.4204E-44
REACH    4        0   255  0.9257E+02  0.1838E+00  0.2945E+00  0.5605E-44
REACH    1        0   256  0.2495E+02  0.2045E-02  0.2746E-01  0.1401E-44
REACH    2        0   256  0.5464E+02  0.3292E-01  0.1597E+00  0.2803E-44
REACH    3        0   256  0.1361E+02  0.1461E-02  0.1401E-01  0.4204E-44
REACH    4        0   256  0.9257E+02  0.1768E+00  0.2890E+00  0.5605E-44
REACH    1        0   257  0.2495E+02  0.5651E-01  0.2882E-01  0.1401E-44
REACH    2        0   257  0.5464E+02  0.8652E-01  0.1563E+00  0.2803E-44
REACH    3        0   257  0.1361E+02  0.3630E-02  0.1352E-01  0.4204E-44
REACH    4        0   257  0.9257E+02  0.1740E+00  0.2836E+00  0.5605E-44
REACH    1        0   258  0.2495E+02  0.1319E-01  0.2809E-01  0.1401E-44
REACH    2        0   258  0.5464E+02  0.4263E-01  0.1509E+00  0.2803E-44
REACH    3        0   258  0.1361E+02  0.2185E-02  0.1299E-01  0.4204E-44
REACH    4        0   258  0.9257E+02  0.1673E+00  0.2782E+00  0.5605E-44
REACH    1        0   259  0.2495E+02  0.5259E-02  0.2702E-01  0.1401E-44
REACH    2        0   259  0.5464E+02  0.3404E-01  0.1455E+00  0.2803E-44
REACH    3        0   259  0.1361E+02  0.1339E-02  0.1244E-01  0.4204E-44
REACH    4        0   259  0.9257E+02  0.1608E+00  0.2726E+00  0.5605E-44
REACH    1        0   260  0.2495E+02  0.9680E-02  0.2620E-01  0.1401E-44
REACH    2        0   260  0.5464E+02  0.3730E-01  0.1404E+00  0.2803E-44
REACH    3        0   260  0.1361E+02  0.1297E-02  0.1192E-01  0.4204E-44
REACH    4        0   260  0.9257E+02  0.1551E+00  0.2671E+00  0.5605E-44
REACH    1        0   261  0.2495E+02  0.3418E-01  0.2658E-01  0.1401E-44
REACH    2        0   261  0.5464E+02  0.6286E-01  0.1367E+00  0.2803E-44
REACH    3        0   261  0.1361E+02  0.1739E-01  0.1218E-01  0.4204E-44
REACH    4        0   261  0.9257E+02  0.1600E+00  0.2621E+00  0.5605E-44
REACH    1        0   262  0.2495E+02  0.7668E+00  0.4657E+00  0.1401E-44
REACH    2        0   262  0.5464E+02  0.1238E+01  0.1883E+00  0.2803E-44
REACH    3        0   262  0.1361E+02  0.1260E-02  0.1166E-01  0.4204E-44
REACH    4        0   262  0.9257E+02  0.2026E+00  0.2593E+00  0.5605E-44
REACH    1        0   263  0.2495E+02  0.5829E-02  0.3966E-01  0.1401E-44
REACH    2        0   263  0.5464E+02  0.4635E-01  0.1817E+00  0.2803E-44
REACH    3        0   263  0.1361E+02  0.1198E-02  0.1117E-01  0.4204E-44
REACH    4        0   263  0.9257E+02  0.1954E+00  0.2563E+00  0.5605E-44
REACH    1        0   264  0.2495E+02  0.3462E-02  0.3796E-01  0.1401E-44
REACH    2        0   264  0.5464E+02  0.4363E-01  0.1752E+00  0.2803E-44
REACH    3        0   264  0.1361E+02  0.1162E-02  0.1070E-01  0.4204E-44
REACH    4        0   264  0.9257E+02  0.1884E+00  0.2531E+00  0.5605E-44
REACH    1        0   265  0.2495E+02  0.2703E-02  0.3631E-01  0.1401E-44
REACH    2        0   265  0.5464E+02  0.4179E-01  0.1689E+00  0.2803E-44
REACH    3        0   265  0.1361E+02  0.1128E-02  0.1025E-01  0.4204E-44
REACH    4        0   265  0.9257E+02  0.1816E+00  0.2498E+00  0.5605E-44
REACH    1        0   266  0.2495E+02  0.2304E-02  0.3472E-01  0.1401E-44
REACH    2        0   266  0.5464E+02  0.4001E-01  0.1629E+00  0.2803E-44
REACH    3        0   266  0.1361E+02  0.1095E-02  0.9821E-02  0.4204E-44
REACH    4        0   266  0.9257E+02  0.1750E+00  0.2462E+00  0.5605E-44
REACH    1        0   267  0.2495E+02  0.2079E-02  0.3319E-01  0.1401E-44
REACH    2        0   267  0.5464E+02  0.3831E-01  0.1571E+00  0.2803E-44
REACH    3        0   267  0.1361E+02  0.1063E-02  0.9410E-02  0.4204E-44
REACH    4        0   267  0.9257E+02  0.1687E+00  0.2426E+00  0.5605E-44
REACH    1        0   268  0.2495E+02  0.1942E-02  0.3172E-01  0.1401E-44
REACH    2        0   268  0.5464E+02  0.3668E-01  0.1514E+00  0.2803E-44
REACH    3        0   268  0.1361E+02  0.2021E-01  0.9915E-02  0.4204E-44
REACH    4        0   268  0.9257E+02  0.1735E+00  0.2394E+00  0.5605E-44
REACH    1        0   269  0.2495E+02  0.1850E-02  0.3032E-01  0.1401E-44
REACH    2        0   269  0.5464E+02  0.3512E-01  0.1460E+00  0.2803E-44
REACH    3        0   269  0.1361E+02  0.1955E-01  0.1037E-01  0.4204E-44
[...]
REACH    3        0   298  0.1361E+02  0.1192E-02  0.1287E-01  0.4204E-44
REACH    4        0   298  0.9257E+02  0.1075E+00  0.1265E+00  0.5605E-44
REACH    1        0   299  0.2495E+02  0.9195E-03  0.2103E-01  0.1401E-44
REACH    2        0   299  0.5464E+02  0.2375E-01  0.8893E-01  0.2803E-44
REACH    3        0   299  0.1361E+02  0.1146E-02  0.1232E-01  0.4204E-44
REACH    4        0   299  0.9257E+02  0.1036E+00  0.1254E+00  0.5605E-44
REACH    1        0   300  0.2495E+02  0.8791E-03  0.2009E-01  0.1401E-44
REACH    2        0   300  0.5464E+02  0.2271E-01  0.8583E-01  0.2803E-44
REACH    3        0   300  0.1361E+02  0.1101E-02  0.1180E-01  0.4204E-44
REACH    4        0   300  0.9257E+02  0.9988E-01  0.1242E+00  0.5605E-44
REACH    1        0   301  0.2495E+02  0.8490E-03  0.1918E-01  0.1401E-44
REACH    2        0   301  0.5464E+02  0.2172E-01  0.8282E-01  0.2803E-44
REACH    3        0   301  0.1361E+02  0.1059E-02  0.1129E-01  0.4204E-44
REACH    4        0   301  0.9257E+02  0.9628E-01  0.1229E+00  0.5605E-44
REACH    1        0   302  0.2495E+02  0.8242E-03  0.1832E-01  0.1401E-44
REACH    2        0   302  0.5464E+02  0.2077E-01  0.7991E-01  0.2803E-44
REACH    3        0   302  0.1361E+02  0.1019E-02  0.1081E-01  0.4204E-44
REACH    4        0   302  0.9257E+02  0.9280E-01  0.1215E+00  0.5605E-44
REACH    1        0   303  0.2495E+02  0.8024E-03  0.1750E-01  0.1401E-44
REACH    2        0   303  0.5464E+02  0.1987E-01  0.7709E-01  0.2803E-44
REACH    3        0   303  0.1361E+02  0.9809E-03  0.1035E-01  0.4204E-44
REACH    4        0   303  0.9257E+02  0.8944E-01  0.1200E+00  0.5605E-44
REACH    1        0   304  0.2495E+02  0.7824E-03  0.1672E-01  0.1401E-44
REACH    2        0   304  0.5464E+02  0.1901E-01  0.7437E-01  0.2803E-44
REACH    3        0   304  0.1361E+02  0.9446E-03  0.9908E-02  0.4204E-44
REACH    4        0   304  0.9257E+02  0.8620E-01  0.1184E+00  0.5605E-44
REACH    1        0   305  0.2495E+02  0.7636E-03  0.1597E-01  0.1401E-44
REACH    2        0   305  0.5464E+02  0.1818E-01  0.7173E-01  0.2803E-44
REACH    3        0   305  0.1361E+02  0.9099E-03  0.9486E-02  0.4204E-44
REACH    4        0   305  0.9257E+02  0.8307E-01  0.1167E+00  0.5605E-44
REACH    1        0   306  0.2495E+02  0.7456E-03  0.1526E-01  0.1401E-44
REACH    2        0   306  0.5464E+02  0.1740E-01  0.6918E-01  0.2803E-44
REACH    3        0   306  0.1361E+02  0.8768E-03  0.9081E-02  0.4204E-44
REACH    4        0   306  0.9257E+02  0.8004E-01  0.1150E+00  0.5605E-44
REACH    1        0   307  0.2495E+02  0.7282E-03  0.1458E-01  0.1401E-44
REACH    2        0   307  0.5464E+02  0.1664E-01  0.6672E-01  0.2803E-44
REACH    3        0   307  0.1361E+02  0.8452E-03  0.8695E-02  0.4204E-44
REACH    4        0   307  0.9257E+02  0.7713E-01  0.1132E+00  0.5605E-44
REACH    1        0   308  0.2495E+02  0.7113E-03  0.1393E-01  0.1401E-44
REACH    2        0   308  0.5464E+02  0.1593E-01  0.6434E-01  0.2803E-44
REACH    3        0   308  0.1361E+02  0.8151E-03  0.8324E-02  0.4204E-44
REACH    4        0   308  0.9257E+02  0.7431E-01  0.1114E+00  0.5605E-44
REACH    1        0   309  0.2495E+02  0.6949E-03  0.1331E-01  0.1401E-44
REACH    2        0   309  0.5464E+02  0.1524E-01  0.6203E-01  0.2803E-44
REACH    3        0   309  0.1361E+02  0.7864E-03  0.7970E-02  0.4204E-44
REACH    4        0   309  0.9257E+02  0.7159E-01  0.1095E+00  0.5605E-44
REACH    1        0   310  0.2495E+02  0.6789E-03  0.1271E-01  0.1401E-44
REACH    2        0   310  0.5464E+02  0.1459E-01  0.5981E-01  0.2803E-44
REACH    3        0   310  0.1361E+02  0.7589E-03  0.7632E-02  0.4204E-44
REACH    4        0   310  0.9257E+02  0.6897E-01  0.1076E+00  0.5605E-44
REACH    1        0   311  0.2495E+02  0.6633E-03  0.1215E-01  0.1401E-44
REACH    2        0   311  0.5464E+02  0.1397E-01  0.5766E-01  0.2803E-44
REACH    3        0   311  0.1361E+02  0.7327E-03  0.7308E-02  0.4204E-44
REACH    4        0   311  0.9257E+02  0.6644E-01  0.1057E+00  0.5605E-44
REACH    1        0   312  0.2495E+02  0.6481E-03  0.1161E-01  0.1401E-44
REACH    2        0   312  0.5464E+02  0.1337E-01  0.5558E-01  0.2803E-44
REACH    3        0   312  0.1361E+02  0.7076E-03  0.6998E-02  0.4204E-44
REACH    4        0   312  0.9257E+02  0.6400E-01  0.1037E+00  0.5605E-44
REACH    1        0   313  0.2495E+02  0.6333E-03  0.1110E-01  0.1401E-44
REACH    2        0   313  0.5464E+02  0.1280E-01  0.5357E-01  0.2803E-44
REACH    3        0   313  0.1361E+02  0.6837E-03  0.6701E-02  0.4204E-44
REACH    4        0   313  0.9257E+02  0.6164E-01  0.1018E+00  0.5605E-44
REACH    1        0   314  0.2495E+02  0.6200E-02  0.1087E-01  0.1401E-44
REACH    2        0   314  0.5464E+02  0.1583E-01  0.5180E-01  0.2803E-44
REACH    3        0   314  0.1361E+02  0.8099E-03  0.6423E-02  0.4204E-44
REACH    4        0   314  0.9257E+02  0.5988E-01  0.9979E-01  0.5605E-44
REACH    1        0   315  0.2495E+02  0.7199E-03  0.1039E-01  0.1401E-44
REACH    2        0   315  0.5464E+02  0.1200E-01  0.4993E-01  0.2803E-44
REACH    3        0   315  0.1361E+02  0.6390E-03  0.6152E-02  0.4204E-44
REACH    4        0   315  0.9257E+02  0.5736E-01  0.9780E-01  0.5605E-44
REACH    1        0   316  0.2495E+02  0.6473E-03  0.9933E-02  0.1401E-44
REACH    2        0   316  0.5464E+02  0.1149E-01  0.4813E-01  0.2803E-44
REACH    3        0   316  0.1361E+02  0.6178E-03  0.5892E-02  0.4204E-44
REACH    4        0   316  0.9257E+02  0.5525E-01  0.9580E-01  0.5605E-44
REACH    1        0   317  0.2495E+02  0.6077E-03  0.9496E-02  0.1401E-44
REACH    2        0   317  0.5464E+02  0.1101E-01  0.4638E-01  0.2803E-44
REACH    3        0   317  0.1361E+02  0.5977E-03  0.5643E-02  0.4204E-44
REACH    4        0   317  0.9257E+02  0.5322E-01  0.9380E-01  0.5605E-44
REACH    1        0   318  0.2495E+02  0.5815E-03  0.9078E-02  0.1401E-44
REACH    2        0   318  0.5464E+02  0.1054E-01  0.4470E-01  0.2803E-44
REACH    3        0   318  0.1361E+02  0.5784E-03  0.5405E-02  0.4204E-44
REACH    4        0   318  0.9257E+02  0.5126E-01  0.9181E-01  0.5605E-44
REACH    1        0   319  0.2495E+02  0.5619E-03  0.8679E-02  0.1401E-44
REACH    2        0   319  0.5464E+02  0.1010E-01  0.4308E-01  0.2803E-44
REACH    3        0   319  0.1361E+02  0.5599E-03  0.5177E-02  0.4204E-44
REACH    4        0   319  0.9257E+02  0.4937E-01  0.8981E-01  0.5605E-44
REACH    1        0   320  0.2495E+02  0.5459E-03  0.8298E-02  0.1401E-44
REACH    2        0   320  0.5464E+02  0.9677E-02  0.4151E-01  0.2803E-44
REACH    3        0   320  0.1361E+02  0.5422E-03  0.4959E-02  0.4204E-44
REACH    4        0   320  0.9257E+02  0.4755E-01  0.8783E-01  0.5605E-44
REACH    1        0   321  0.2495E+02  0.2999E+00  0.2197E-01  0.1401E-44
REACH    2        0   321  0.5464E+02  0.2618E+00  0.5183E-01  0.2803E-44
REACH    3        0   321  0.1361E+02  0.7666E-01  0.8319E-02  0.4204E-44
REACH    4        0   321  0.9257E+02  0.1032E+00  0.8855E-01  0.5605E-44
REACH    1        0   322  0.2495E+02  0.2220E-02  0.2104E-01  0.1401E-44
REACH    2        0   322  0.5464E+02  0.2304E-01  0.5048E-01  0.2803E-44
REACH    3        0   322  0.1361E+02  0.8880E-03  0.7970E-02  0.4204E-44
REACH    4        0   322  0.9257E+02  0.6008E-01  0.8721E-01  0.5605E-44
REACH    1        0   323  0.2495E+02  0.1242E-02  0.2011E-01  0.1401E-44
REACH    2        0   323  0.5464E+02  0.2179E-01  0.4914E-01  0.2803E-44
REACH    3        0   323  0.1361E+02  0.7400E-03  0.7631E-02  0.4204E-44
REACH    4        0   323  0.9257E+02  0.5830E-01  0.8585E-01  0.5605E-44
REACH    1        0   324  0.2495E+02  0.9222E-03  0.1921E-01  0.1401E-44
REACH    2        0   324  0.5464E+02  0.2084E-01  0.4781E-01  0.2803E-44
REACH    3        0   324  0.1361E+02  0.7130E-03  0.7306E-02  0.4204E-44
REACH    4        0   324  0.9257E+02  0.5659E-01  0.8448E-01  0.5605E-44
REACH    1        0   325  0.2495E+02  0.2502E+00  0.2051E+00  0.1401E-44
REACH    2        0   325  0.5464E+02  0.4152E+00  0.6503E-01  0.2803E-44
REACH    3        0   325  0.1361E+02  0.5453E-01  0.9519E-02  0.4204E-44
REACH    4        0   325  0.9257E+02  0.1052E+00  0.8545E-01  0.5605E-44
REACH    1        0   326  0.2495E+02  0.1304E+01  0.9920E+00  0.1401E-44
REACH    2        0   326  0.5464E+02  0.2500E+01  0.1792E+00  0.2803E-44
REACH    3        0   326  0.1361E+02  0.4599E+00  0.3063E-01  0.4204E-44
REACH    4        0   326  0.9257E+02  0.4465E+00  0.1024E+00  0.5605E-44
REACH    1        0   327  0.2495E+02  0.1031E-01  0.3549E-01  0.1401E-44
REACH    2        0   327  0.5464E+02  0.4298E-01  0.1728E+00  0.2803E-44
REACH    3        0   327  0.1361E+02  0.3796E-02  0.2937E-01  0.4204E-44
REACH    4        0   327  0.9257E+02  0.2089E+00  0.1074E+00  0.5605E-44
REACH    1        0   328  0.2495E+02  0.5071E-02  0.3407E-01  0.1401E-44
REACH    2        0   328  0.5464E+02  0.3968E-01  0.1665E+00  0.2803E-44
REACH    3        0   328  0.1361E+02  0.2935E-02  0.2813E-01  0.4204E-44
REACH    4        0   328  0.9257E+02  0.2009E+00  0.1117E+00  0.5605E-44
REACH    1        0   329  0.2495E+02  0.3205E-02  0.3262E-01  0.1401E-44
REACH    2        0   329  0.5464E+02  0.3800E-01  0.1605E+00  0.2803E-44
REACH    3        0   329  0.1361E+02  0.2801E-02  0.2694E-01  0.4204E-44
REACH    4        0   329  0.9257E+02  0.1934E+00  0.1156E+00  0.5605E-44
REACH    1        0   330  0.2495E+02  0.2261E-02  0.3120E-01  0.1401E-44
REACH    2        0   330  0.5464E+02  0.3636E-01  0.1547E+00  0.2803E-44
REACH    3        0   330  0.1361E+02  0.2676E-02  0.2580E-01  0.4204E-44
REACH    4        0   330  0.9257E+02  0.1862E+00  0.1189E+00  0.5605E-44
REACH    1        0   331  0.2495E+02  0.1766E-02  0.2982E-01  0.1401E-44
REACH    2        0   331  0.5464E+02  0.3477E-01  0.1491E+00  0.2803E-44
REACH    3        0   331  0.1361E+02  0.2557E-02  0.2471E-01  0.4204E-44
REACH    4        0   331  0.9257E+02  0.1792E+00  0.1217E+00  0.5605E-44
REACH    1        0   332  0.2495E+02  0.4658E+00  0.1734E+00  0.1401E-44
REACH    2        0   332  0.5464E+02  0.5416E+00  0.1675E+00  0.2803E-44
REACH    3        0   332  0.1361E+02  0.1160E+00  0.2899E-01  0.4204E-44
REACH    4        0   332  0.9257E+02  0.2483E+00  0.1276E+00  0.5605E-44
REACH    1        0   333  0.2495E+02  0.5412E-02  0.4237E-01  0.1401E-44
REACH    2        0   333  0.5464E+02  0.4977E-01  0.1619E+00  0.2803E-44
REACH    3        0   333  0.1361E+02  0.3340E-02  0.2779E-01  0.4204E-44
REACH    4        0   333  0.9257E+02  0.1962E+00  0.1308E+00  0.5605E-44
REACH    1        0   334  0.2495E+02  0.5732E+00  0.2909E+00  0.1401E-44
REACH    2        0   334  0.5464E+02  0.1007E+01  0.2016E+00  0.2803E-44
REACH    3        0   334  0.1361E+02  0.2468E+00  0.3805E-01  0.4204E-44
REACH    4        0   334  0.9257E+02  0.3609E+00  0.1416E+00  0.5605E-44
REACH    1        0   335  0.2495E+02  0.7411E-02  0.5394E-01  0.1401E-44
REACH    2        0   335  0.5464E+02  0.6211E-01  0.1950E+00  0.2803E-44
REACH    3        0   335  0.1361E+02  0.4480E-02  0.3648E-01  0.4204E-44
REACH    4        0   335  0.9257E+02  0.2398E+00  0.1462E+00  0.5605E-44
REACH    1        0   336  0.2495E+02  0.4236E-02  0.5161E-01  0.1401E-44
REACH    2        0   336  0.5464E+02  0.5871E-01  0.1886E+00  0.2803E-44
REACH    3        0   336  0.1361E+02  0.3911E-02  0.3495E-01  0.4204E-44
REACH    4        0   336  0.9257E+02  0.2315E+00  0.1502E+00  0.5605E-44
REACH    1        0   337  0.2495E+02  0.2967E-02  0.4933E-01  0.1401E-44
REACH    2        0   337  0.5464E+02  0.5613E-01  0.1824E+00  0.2803E-44
REACH    3        0   337  0.1361E+02  0.3735E-02  0.3349E-01  0.4204E-44
REACH    4        0   337  0.9257E+02  0.2234E+00  0.1536E+00  0.5605E-44
REACH    1        0   338  0.2495E+02  0.2312E-02  0.4713E-01  0.1401E-44
REACH    2        0   338  0.5464E+02  0.5365E-01  0.1764E+00  0.2803E-44
REACH    3        0   338  0.1361E+02  0.3569E-02  0.3208E-01  0.4204E-44
REACH    4        0   338  0.9257E+02  0.2156E+00  0.1565E+00  0.5605E-44
REACH    1        0   339  0.2495E+02  0.4675E+00  0.1917E+00  0.1401E-44
REACH    2        0   339  0.5464E+02  0.7123E+00  0.2015E+00  0.2803E-44
REACH    3        0   339  0.1361E+02  0.1556E+00  0.3787E-01  0.4204E-44
REACH    4        0   339  0.9257E+02  0.3259E+00  0.1645E+00  0.5605E-44
REACH    1        0   340  0.2495E+02  0.4324E+00  0.1700E+00  0.1401E-44
REACH    2        0   340  0.5464E+02  0.6109E+00  0.2207E+00  0.2803E-44
REACH    3        0   340  0.1361E+02  0.1302E+00  0.4220E-01  0.4204E-44
REACH    4        0   340  0.9257E+02  0.3328E+00  0.1724E+00  0.5605E-44
REACH    1        0   341  0.2495E+02  0.7919E-02  0.7050E-01  0.1401E-44
REACH    2        0   341  0.5464E+02  0.7987E-01  0.2141E+00  0.2803E-44
REACH    3        0   341  0.1361E+02  0.4986E-02  0.4046E-01  0.4204E-44
REACH    4        0   341  0.9257E+02  0.2643E+00  0.1767E+00  0.5605E-44
REACH    1        0   342  0.2495E+02  0.4757E-02  0.6742E-01  0.1401E-44
REACH    2        0   342  0.5464E+02  0.7595E-01  0.2076E+00  0.2803E-44
REACH    3        0   342  0.1361E+02  0.4574E-02  0.3877E-01  0.4204E-44
REACH    4        0   342  0.9257E+02  0.2557E+00  0.1804E+00  0.5605E-44
REACH    1        0   343  0.2495E+02  0.1986E+00  0.2013E+00  0.1401E-44
REACH    2        0   343  0.5464E+02  0.3926E+00  0.2163E+00  0.2803E-44
REACH    3        0   343  0.1361E+02  0.6943E-01  0.4021E-01  0.4204E-44
REACH    4        0   343  0.9257E+02  0.2950E+00  0.1857E+00  0.5605E-44
REACH    1        0   344  0.2495E+02  0.4745E-02  0.6435E-01  0.1401E-44
REACH    2        0   344  0.5464E+02  0.7299E-01  0.2096E+00  0.2803E-44
REACH    3        0   344  0.1361E+02  0.4715E-02  0.3855E-01  0.4204E-44
REACH    4        0   344  0.9257E+02  0.2574E+00  0.1891E+00  0.5605E-44
REACH    1        0   345  0.2495E+02  0.3308E-02  0.6149E-01  0.1401E-44
REACH    2        0   345  0.5464E+02  0.6959E-01  0.2030E+00  0.2803E-44
REACH    3        0   345  0.1361E+02  0.4410E-02  0.3695E-01  0.4204E-44
REACH    4        0   345  0.9257E+02  0.2488E+00  0.1919E+00  0.5605E-44
REACH    1        0   346  0.2495E+02  0.2676E-02  0.5873E-01  0.1401E-44
REACH    2        0   346  0.5464E+02  0.6651E-01  0.1966E+00  0.2803E-44
REACH    3        0   346  0.1361E+02  0.4217E-02  0.3541E-01  0.4204E-44
REACH    4        0   346  0.9257E+02  0.2405E+00  0.1942E+00  0.5605E-44
REACH    1        0   347  0.2495E+02  0.2332E-02  0.5609E-01  0.1401E-44
REACH    2        0   347  0.5464E+02  0.6355E-01  0.1904E+00  0.2803E-44
REACH    3        0   347  0.1361E+02  0.4035E-02  0.3394E-01  0.4204E-44
REACH    4        0   347  0.9257E+02  0.2324E+00  0.1960E+00  0.5605E-44
REACH    1        0   348  0.2495E+02  0.2132E-02  0.5356E-01  0.1401E-44
REACH    2        0   348  0.5464E+02  0.6073E-01  0.1843E+00  0.2803E-44
REACH    3        0   348  0.1361E+02  0.3862E-02  0.3253E-01  0.4204E-44
REACH    4        0   348  0.9257E+02  0.2246E+00  0.1973E+00  0.5605E-44
REACH    1        0   349  0.2495E+02  0.2005E-02  0.5115E-01  0.1401E-44
REACH    2        0   349  0.5464E+02  0.5803E-01  0.1784E+00  0.2803E-44
REACH    3        0   349  0.1361E+02  0.3698E-02  0.3118E-01  0.4204E-44
REACH    4        0   349  0.9257E+02  0.2170E+00  0.1982E+00  0.5605E-44
REACH    1        0   350  0.2495E+02  0.9658E+00  0.6864E+00  0.1401E-44
REACH    2        0   350  0.5464E+02  0.1771E+01  0.2530E+00  0.2803E-44
REACH    3        0   350  0.1361E+02  0.2911E+00  0.4336E-01  0.4204E-44
REACH    4        0   350  0.9257E+02  0.4574E+00  0.2104E+00  0.5605E-44
REACH    1        0   351  0.2495E+02  0.9281E-02  0.6228E-01  0.1401E-44
REACH    2        0   351  0.5464E+02  0.7300E-01  0.2446E+00  0.2803E-44
REACH    3        0   351  0.1361E+02  0.5348E-02  0.4158E-01  0.4204E-44
REACH    4        0   351  0.9257E+02  0.2965E+00  0.2144E+00  0.5605E-44
REACH    1        0   352  0.2495E+02  0.1137E+00  0.1149E+00  0.1401E-44
REACH    2        0   352  0.5464E+02  0.2545E+00  0.2450E+00  0.2803E-44
REACH    3        0   352  0.1361E+02  0.4903E-01  0.4193E-01  0.4204E-44
REACH    4        0   352  0.9257E+02  0.3183E+00  0.2193E+00  0.5605E-44
REACH    1        0   353  0.2495E+02  0.5331E-02  0.5955E-01  0.1401E-44
REACH    2        0   353  0.5464E+02  0.6903E-01  0.2368E+00  0.2803E-44
REACH    3        0   353  0.1361E+02  0.4912E-02  0.4019E-01  0.4204E-44
REACH    4        0   353  0.9257E+02  0.2870E+00  0.2224E+00  0.5605E-44
REACH    1        0   354  0.2495E+02  0.3764E-02  0.5693E-01  0.1401E-44
REACH    2        0   354  0.5464E+02  0.6590E-01  0.2288E+00  0.2803E-44
REACH    3        0   354  0.1361E+02  0.4634E-02  0.3852E-01  0.4204E-44
REACH    4        0   354  0.9257E+02  0.2769E+00  0.2250E+00  0.5605E-44
REACH    1        0   355  0.2495E+02  0.3015E-02  0.5441E-01  0.1401E-44
REACH    2        0   355  0.5464E+02  0.6302E-01  0.2210E+00  0.2803E-44
REACH    3        0   355  0.1361E+02  0.4436E-02  0.3693E-01  0.4204E-44
REACH    4        0   355  0.9257E+02  0.2671E+00  0.2270E+00  0.5605E-44
REACH    1        0   356  0.2495E+02  0.2608E-02  0.5198E-01  0.1401E-44
REACH    2        0   356  0.5464E+02  0.6025E-01  0.2135E+00  0.2803E-44
REACH    3        0   356  0.1361E+02  0.4248E-02  0.3539E-01  0.4204E-44
REACH    4        0   356  0.9257E+02  0.2576E+00  0.2284E+00  0.5605E-44
REACH    1        0   357  0.2495E+02  0.2373E-02  0.4965E-01  0.1401E-44
REACH    2        0   357  0.5464E+02  0.5760E-01  0.2062E+00  0.2803E-44
REACH    3        0   357  0.1361E+02  0.4070E-02  0.3393E-01  0.4204E-44
REACH    4        0   357  0.9257E+02  0.2485E+00  0.2293E+00  0.5605E-44
REACH    1        0   358  0.2495E+02  0.2226E-02  0.4743E-01  0.1401E-44
REACH    2        0   358  0.5464E+02  0.5507E-01  0.1991E+00  0.2803E-44
REACH    3        0   358  0.1361E+02  0.3901E-02  0.3252E-01  0.4204E-44
REACH    4        0   358  0.9257E+02  0.2396E+00  0.2298E+00  0.5605E-44
REACH    1        0   359  0.2495E+02  0.2125E-02  0.4531E-01  0.1401E-44
REACH    2        0   359  0.5464E+02  0.5287E-01  0.1922E+00  0.2803E-44
REACH    3        0   359  0.1361E+02  0.7539E-02  0.3135E-01  0.4204E-44
REACH    4        0   359  0.9257E+02  0.2346E+00  0.2300E+00  0.5605E-44
REACH    1        0   360  0.2495E+02  0.4467E-01  0.4528E-01  0.1401E-44
REACH    2        0   360  0.5464E+02  0.9222E-01  0.1875E+00  0.2803E-44
REACH    3        0   360  0.1361E+02  0.1001E-01  0.3035E-01  0.4204E-44
REACH    4        0   360  0.9257E+02  0.2300E+00  0.2300E+00  0.5605E-44
REACH    1        0   361  0.2495E+02  0.2449E-02  0.4327E-01  0.1401E-44
REACH    2        0   361  0.5464E+02  0.5028E-01  0.1811E+00  0.2803E-44
REACH    3        0   361  0.1361E+02  0.3535E-02  0.2909E-01  0.4204E-44
REACH    4        0   361  0.9257E+02  0.2175E+00  0.2294E+00  0.5605E-44
REACH    1        0   362  0.2495E+02  0.2155E-02  0.4134E-01  0.1401E-44
REACH    2        0   362  0.5464E+02  0.4805E-01  0.1749E+00  0.2803E-44
REACH    3        0   362  0.1361E+02  0.3383E-02  0.2788E-01  0.4204E-44
REACH    4        0   362  0.9257E+02  0.2098E+00  0.2285E+00  0.5605E-44
REACH    1        0   363  0.2495E+02  0.3058E+00  0.5374E-01  0.1401E-44
REACH    2        0   363  0.5464E+02  0.4200E+00  0.1864E+00  0.2803E-44
REACH    3        0   363  0.1361E+02  0.1147E+00  0.3195E-01  0.4204E-44
REACH    4        0   363  0.9257E+02  0.2902E+00  0.2314E+00  0.5605E-44
REACH    1        0   364  0.2495E+02  0.3911E-02  0.5140E-01  0.1401E-44
REACH    2        0   364  0.5464E+02  0.5912E-01  0.1804E+00  0.2803E-44
REACH    3        0   364  0.1361E+02  0.3912E-02  0.3064E-01  0.4204E-44
REACH    4        0   364  0.9257E+02  0.2191E+00  0.2308E+00  0.5605E-44
REACH    1        0   365  0.2495E+02  0.2741E-02  0.4912E-01  0.1401E-44
REACH    2        0   365  0.5464E+02  0.5618E-01  0.1746E+00  0.2803E-44
REACH    3        0   365  0.1361E+02  0.3586E-02  0.2937E-01  0.4204E-44
REACH    4        0   365  0.9257E+02  0.2116E+00  0.2299E+00  0.5605E-44
