1
    SWAT Dec 6 2013    VER 2012/Rev 613                                                                  0/ 0/   0      0: 0: 0

    General Input/Output section (file.cio):                                        
    2/7/2013 12:00:00 AM ARCGIS-SWAT interface AV                                   
                                                                                    
         Number of years in run:    3
         Area of watershed:       92.569 km2
1
    SWAT Dec 6 2013    VER 2012/Rev 613                                             

    General Input/Output section (file.cio):                                        
    2/7/2013 12:00:00 AM ARCGIS-SWAT interface AV                                   
                                                                                    
Annual Summary for Watershed in year    1 of simulation

UNIT                                    PERCO    TILE                           WATER     SED     NO3     NO3     NO3     NO3        N       P       P
TIME     PREC    SURQ    LATQ     GWQ    LATE       Q     SW       ET     PET   YIELD   YIELD    SURQ    LATQ    PERC    CROP  ORGANIC SOLUBLE ORGANIC TILENO3
         (mm)    (mm)    (mm)    (mm)    (mm)    (mm)    (mm)    (mm)    (mm)    (mm)    (mm)   ------------------(kg nutrient/ha)-------------------- (kg/ha)
1
    SWAT Dec 6 2013    VER 2012/Rev 613                                             

    General Input/Output section (file.cio):                                        
    2/7/2013 12:00:00 AM ARCGIS-SWAT interface AV                                   
                                                                                    
Annual Summary for Watershed in year    2 of simulation

UNIT                                    PERCO    TILE                           WATER     SED     NO3     NO3     NO3     NO3        N       P       P
TIME     PREC    SURQ    LATQ     GWQ    LATE       Q     SW       ET     PET   YIELD   YIELD    SURQ    LATQ    PERC    CROP  ORGANIC SOLUBLE ORGANIC TILENO3
         (mm)    (mm)    (mm)    (mm)    (mm)    (mm)    (mm)    (mm)    (mm)    (mm)    (mm)   ------------------(kg nutrient/ha)-------------------- (kg/ha)
    1    5.14    0.13    0.02    0.00    0.00    0.00  136.62    0.55    1.28    0.15    0.00    0.00    0.00    0.00    0.00     0.00    0.00    0.00    0.00
    2    0.00    0.00    0.02    0.00    0.00    0.00  135.65    0.96    1.93    0.02    0.00    0.00    0.00    0.00    0.00     0.00    0.00    0.00    0.00
    3    0.00    0.00    0.02    0.00    0.00    0.00  134.66    0.99    2.08    0.02    0.00    0.00    0.00    0.00    0.00     0.00    0.00    0.00    0.00
    4    0.00    0.00    0.02    0.00    0.00    0.00  133.75    0.91    1.93    0.02    0.00    0.00    0.00    0.00    0.00     0.00    0.00    0.00    0.00
    5    6.19    0.27    0.02    0.00    0.00    0.00  138.61    1.02    1.27    0.29    0.00    0.01    0.00    0.00    0.00     0.01    0.00    0.00    0.00
    6    1.17    0.01    0.02    0.00    0.00    0.00  137.81    1.95    3.10    0.03    0.00    0.00    0.00    0.00    0.00     0.00    0.00    0.00    0.00
    7    0.00    0.00    0.02    0.00    0.00    0.00  136.38    1.43    2.60    0.02    0.00    0.00    0.00    0.00    0.00     0.00    0.00    0.00    0.00
    8    9.99    0.12    0.02    0.00    0.00    0.00  139.61    0.37    0.59    0.14    0.00    0.00    0.00    0.00    0.00     0.00    0.00    0.00    0.00
    9    1.23    0.06    0.02    0.00    0.00    0.00  141.19    0.37    0.56    0.08    0.00    0.00    0.00    0.00    0.00     0.00    0.00    0.00    0.00
   10    7.91    0.00    0.02    0.00    0.00    0.00  141.00    0.20    0.39    0.02    0.00    0.00    0.00    0.00    0.00     0.00    0.00    0.00    0.00
   11    5.52    0.00    0.01    0.00    0.00    0.00  140.88    0.11    0.24    0.01    0.00    0.00    0.00    0.00    0.00     0.00    0.00    0.00    0.00
   12    0.12    1.43    0.03    0.00    0.40    0.00  156.03    1.83    2.12    1.46    0.01    0.01    0.00    0.10    0.00     0.02    0.00    0.00    0.00
   13    4.20    0.11    0.03    0.00    0.88    0.00  157.44    1.73    2.25    0.14    0.00    0.00    0.00    0.20    0.00     0.00    0.00    0.00    0.00
   14    0.00    0.00    0.02    0.00    0.74    0.00  155.60    1.09    1.53    0.02    0.00    0.00    0.00    0.13    0.00     0.00    0.00    0.00    0.00
   15    0.00    0.00    0.02    0.00    0.73    0.00  152.84    2.02    2.97    0.02    0.00    0.00    0.00    0.11    0.00     0.00    0.00    0.00    0.00
   16    0.00    0.00    0.02    0.00    0.39    0.00  150.92    1.53    2.44    0.02    0.00    0.00    0.00    0.06    0.00     0.00    0.00    0.00    0.00
   17    0.00    0.00    0.02    0.00    0.16    0.00  149.98    0.77    1.31    0.02    0.00    0.00    0.00    0.03    0.00     0.00    0.00    0.00    0.00
   18   10.28    1.01    0.03    0.00    0.05    0.00  158.53    0.60    0.73    1.04    0.03    0.01    0.00    0.01    0.00     0.04    0.00    0.01    0.00
   19    1.28    0.01    0.02    0.00    0.02    0.00  157.71    2.07    2.39    0.03    0.00    0.00    0.00    0.00    0.00     0.00    0.00    0.00    0.00
   20    6.25    0.00    0.02    0.00    0.01    0.00  156.56    1.14    1.67    0.02    0.00    0.00    0.00    0.00    0.00     0.00    0.00    0.00    0.00
   21    0.00    0.01    0.02    0.00    0.00    0.00  157.40    0.55    0.82    0.03    0.00    0.00    0.00    0.00    0.00     0.00    0.00    0.00    0.00
   22    0.00    0.12    0.02    0.00    0.82    0.00  159.94    1.29    1.84    0.14    0.00    0.00    0.00    0.13    0.00     0.00    0.00    0.00    0.00
   23    0.00    0.00    0.02    0.00    0.53    0.00  157.27    2.13    3.20    0.02    0.00    0.00    0.00    0.08    0.00     0.00    0.00    0.00    0.00
   24    3.23    0.06    0.02    0.00    0.73    0.00  157.86    1.81    2.99    0.09    0.00    0.00    0.00    0.10    0.00     0.00    0.00    0.00    0.00
   25    3.97    0.24    0.02    0.00    0.46    0.00  159.46    1.65    1.92    0.26    0.01    0.00    0.00    0.06    0.00     0.01    0.00    0.00    0.00
   26    0.00    0.00    0.02    0.00    0.22    0.00  158.42    0.82    1.09    0.02    0.00    0.00    0.00    0.03    0.00     0.00    0.00    0.00    0.00
   27    0.00    0.00    0.02    0.00    0.10    0.00  157.96    0.36    0.50    0.02    0.00    0.00    0.00    0.01    0.00     0.00    0.00    0.00    0.00
   28    0.00    0.00    0.02    0.00    0.04    0.00  156.65    1.27    1.80    0.02    0.00    0.00    0.00    0.01    0.00     0.00    0.00    0.00    0.00
   29    0.00    0.00    0.02    0.00    0.00    0.00  155.14    1.51    2.26    0.02    0.00    0.00    0.00    0.00    0.00     0.00    0.00    0.00    0.00
   30    0.00    0.00    0.02    0.00    0.00    0.00  153.51    1.63    2.60    0.02    0.00    0.00    0.00    0.00    0.00     0.00    0.00    0.00    0.00
   31    0.00    0.00    0.02    0.00    0.00    0.00  151.89    1.62    2.78    0.02    0.00    0.00    0.00    0.00    0.00     0.00    0.00    0.00    0.00
    1   66.46    3.59    0.62    0.00    6.28    0.00  151.89   36.28   55.20    4.21    0.06    0.03    0.01    1.06    0.00     0.09    0.00    0.01    0.00
   32    3.50    0.05    0.02    0.00    0.00    0.00  153.98    0.58    1.30    0.06    0.00    0.00    0.00    0.00    0.00     0.00    0.00    0.00    0.00
   33    0.00    0.00    0.02    0.00    0.00    0.00  153.63    1.12    2.01    0.02    0.00    0.00    0.00    0.00    0.00     0.00    0.00    0.00    0.00
   34    0.00    0.00    0.02    0.00    0.00    0.00  152.83    0.80    1.46    0.02    0.00    0.00    0.00    0.00    0.00     0.00    0.00    0.00    0.00
   35    0.00    0.00    0.02    0.00    0.00    0.00  151.62    1.21    2.26    0.02    0.00    0.00    0.00    0.00    0.00     0.00    0.00    0.00    0.00
   36    0.00    0.00    0.01    0.00    0.00    0.00  150.45    1.17    2.22    0.01    0.00    0.00    0.00    0.00    0.00     0.00    0.00    0.00    0.00
   37    0.30    0.00    0.01    0.00    0.00    0.00  150.37    0.38    0.61    0.01    0.00    0.00    0.00    0.00    0.00     0.00    0.00    0.00    0.00
   38    1.30    0.01    0.01    0.00    0.00    0.00  150.60    1.05    1.94    0.02    0.00    0.00    0.00    0.00    0.00     0.00    0.00    0.00    0.00
   39    8.23    0.67    0.02    0.00    0.00    0.00  156.32    1.81    2.04    0.69    0.01    0.01    0.00    0.00    0.00     0.02    0.00    0.00    0.00
   40    6.69    0.23    0.02    0.00    0.70    0.00  160.80    1.19    1.59    0.25    0.00    0.00    0.00    0.10    0.00     0.01    0.00    0.00    0.00
   41    0.39    0.00    0.02    0.00    0.43    0.00  159.92    0.83    1.05    0.02    0.00    0.00    0.00    0.06    0.00     0.00    0.00    0.00    0.00
   42    8.88    0.83    0.02    0.00    0.24    0.00  165.80    1.86    2.13    0.85    0.02    0.00    0.00    0.03    0.00     0.03    0.00    0.00    0.00
   43    1.00    0.01    0.02    0.00    0.11    0.00  165.83    0.85    0.99    0.03    0.00    0.00    0.00    0.02    0.00     0.00    0.00    0.00    0.00
   44    0.00    0.00    0.02    0.00    0.04    0.00  164.26    1.52    1.71    0.02    0.00    0.00    0.00    0.01    0.00     0.00    0.00    0.00    0.00
   45    0.00    0.00    0.02    0.00    0.00    0.00  162.67    1.59    1.96    0.02    0.00    0.00    0.00    0.00    0.00     0.00    0.00    0.00    0.00
   46    0.00    0.00    0.02    0.00    0.00    0.00  161.30    1.36    1.81    0.02    0.00    0.00    0.00    0.00    0.00     0.00    0.00    0.00    0.00
   47    0.00    0.00    0.02    0.00    0.00    0.00  160.12    1.18    1.66    0.02    0.00    0.00    0.00    0.00    0.00     0.00    0.00    0.00    0.00
   48    0.00    0.00    0.01    0.00    0.00    0.00  159.10    1.02    1.52    0.01    0.00    0.00    0.00    0.00    0.00     0.00    0.00    0.00    0.00
   49    8.77    0.82    0.02    0.00    0.00    0.00  165.27    1.72    2.03    0.84    0.04    0.00    0.00    0.00    0.00     0.04    0.00    0.01    0.00
   50    2.37    0.09    0.02    0.00    0.00    0.00  165.27    2.26    2.71    0.11    0.00    0.00    0.00    0.00    0.00     0.00    0.00    0.00    0.00
   51    0.00    0.00    0.02    0.00    0.00    0.00  162.28    2.99    3.99    0.02    0.00    0.00    0.00    0.00    0.00     0.00    0.00    0.00    0.00
   52   15.12    1.56    0.02    0.00    1.89    0.00  170.93    2.87    4.08    1.58    0.02    0.01    0.00    0.29    0.00     0.04    0.00    0.00    0.00
   53    0.15    0.00    0.02    0.00    1.44    0.00  168.30    1.33    2.13    0.02    0.00    0.00    0.00    0.23    0.00     0.00    0.00    0.00    0.00
   54    0.00    0.00    0.02    0.00    0.81    0.00  166.11    1.36    2.20    0.02    0.00    0.00    0.00    0.12    0.00     0.00    0.00    0.00    0.00
   55    7.79    0.69    0.02    0.00    0.40    0.00  171.53    1.24    1.41    0.71    0.03    0.00    0.00    0.06    0.00     0.04    0.00    0.01    0.00
   56    0.00    0.00    0.02    0.00    0.15    0.00  167.92    3.46    3.86    0.02    0.00    0.00    0.00    0.02    0.00     0.00    0.00    0.00    0.00
   57    2.30    0.04    0.02    0.00    0.01    0.00  167.66    2.50    3.37    0.06    0.00    0.00    0.00    0.00    0.00     0.00    0.00    0.00    0.00
   58    0.93    0.00    0.02    0.00    0.00    0.00  166.97    1.62    2.44    0.02    0.00    0.00    0.00    0.00    0.00     0.00    0.00    0.00    0.00
   59    0.00    0.00    0.02    0.00    0.00    0.00  165.40    1.57    2.45    0.02    0.00    0.00    0.00    0.00    0.00     0.00    0.00    0.00    0.00
   60    0.00    0.00    0.02    0.00    0.00    0.00  163.83    1.57    2.57    0.02    0.00    0.00    0.00    0.00    0.00     0.00    0.00    0.00    0.00
    2   67.73    4.98    0.53    0.00    6.24    0.00  163.83   44.04   61.47    5.51    0.13    0.03    0.01    0.94    0.00     0.18    0.00    0.02    0.00
   61    0.00    0.00    0.02    0.00    0.00    0.00  161.96    1.86    3.19    0.02    0.00    0.00    0.00    0.00    0.00     0.00    0.00    0.00    0.00
   62    1.50    0.03    0.02    0.00    0.00    0.00  161.03    2.41    2.91    0.04    0.00    0.00    0.00    0.00    0.00     0.00    0.00    0.00    0.00
   63    0.00    0.00    0.02    0.00    0.00    0.00  159.41    1.62    2.79    0.02    0.00    0.00    0.00    0.00    0.00     0.00    0.00    0.00    0.00
   64    0.00    0.00    0.02    0.00    0.00    0.00  157.28    2.13    4.04    0.02    0.00    0.00    0.00    0.00    0.00     0.00    0.00    0.00    0.00
   65    0.00    0.00    0.01    0.00    0.00    0.00  155.01    2.27    4.76    0.01    0.00    0.00    0.00    0.00    0.00     0.00    0.00    0.00    0.00
   66    7.10    0.21    0.02    0.00    0.00    0.00  158.77    3.10    4.14    0.23    0.00    0.00    0.00    0.00    0.00     0.01    0.00    0.00    0.00
   67    5.01    0.11    0.02    0.00    0.04    0.00  161.30    2.30    3.26    0.12    0.00    0.00    0.00    0.01    0.00     0.00    0.00    0.00    0.00
   68    0.78    0.00    0.02    0.00    0.02    0.00  159.44    2.61    4.71    0.02    0.00    0.00    0.00    0.00    0.00     0.00    0.00    0.00    0.00
   69    0.90    0.00    0.02    0.00    0.01    0.00  158.74    1.58    1.99    0.02    0.00    0.00    0.00    0.00    0.00     0.00    0.00    0.00    0.00
   70    0.00    0.00    0.01    0.00    0.00    0.00  157.26    1.48    2.50    0.01    0.00    0.00    0.00    0.00    0.00     0.00    0.00    0.00    0.00
   71    0.00    0.00    0.01    0.00    0.00    0.00  155.60    1.66    3.08    0.01    0.00    0.00    0.00    0.00    0.00     0.00    0.00    0.00    0.00
   72    1.11    0.01    0.01    0.00    0.00    0.00  153.78    2.92    5.78    0.02    0.00    0.00    0.00    0.00    0.00     0.00    0.00    0.00    0.00
   73    4.17    0.10    0.01    0.00    0.00    0.00  155.98    1.86    3.91    0.11    0.00    0.00    0.00    0.00    0.00     0.00    0.00    0.00    0.00
   74    0.76    0.00    0.01    0.00    0.00    0.00  154.85    1.88    3.98    0.02    0.00    0.00    0.00    0.00    0.00     0.00    0.00    0.00    0.00
   75    7.59    0.30    0.02    0.00    1.24    0.00  159.89    0.92    2.30    0.32    0.01    0.00    0.00    0.20    0.00     0.01    0.00    0.00    0.00
   76    0.75    0.00    0.02    0.00    0.83    0.00  158.12    1.66    3.64    0.02    0.00    0.00    0.00    0.13    0.00     0.00    0.00    0.00    0.00
   77    7.93    0.71    0.02    0.00    0.50    0.00  162.58    2.23    2.55    0.73    0.02    0.01    0.00    0.07    0.00     0.03    0.00    0.00    0.00
   78   23.08    2.73    0.04    0.00    0.23    0.00  181.05    1.45    1.63    2.77    0.12    0.01    0.00    0.03    0.00     0.17    0.00    0.02    0.00
   79    0.00    0.00    0.03    0.00    0.07    0.00  177.29    3.70    4.05    0.03    0.00    0.00    0.00    0.01    0.00     0.00    0.00    0.00    0.00
   80    1.38    0.02    0.02    0.00    0.00    0.00  176.00    2.64    3.02    0.05    0.00    0.00    0.00    0.00    0.00     0.00    0.00    0.00    0.00
   81    0.00    0.00    0.02    0.00    0.00    0.00  172.10    3.90    5.43    0.02    0.00    0.00    0.00    0.00    0.00     0.00    0.00    0.00    0.00
   82    7.76    0.26    0.02    0.00    0.40    0.00  176.48    2.66    4.01    0.28    0.01    0.00    0.00    0.06    0.00     0.01    0.00    0.00    0.00
   83    0.00    0.00    0.02    0.00    0.25    0.00  174.39    1.83    2.91    0.02    0.00    0.00    0.00    0.03    0.00     0.00    0.00    0.00    0.00
   84    0.00    0.00    0.02    0.00    0.08    0.00  171.76    2.55    4.21    0.02    0.00    0.00    0.00    0.01    0.00     0.00    0.00    0.00    0.00
   85    0.00    0.00    0.02    0.00    0.00    0.00  169.01    2.75    4.85    0.02    0.00    0.00    0.00    0.00    0.00     0.00    0.00    0.00    0.00
   86    1.27    0.01    0.02    0.00    0.00    0.00  168.19    2.08    3.93    0.03    0.00    0.00    0.00    0.00    0.00     0.00    0.00    0.00    0.00
   87    1.35    0.01    0.02    0.00    0.00    0.00  167.52    2.00    3.95    0.03    0.00    0.00    0.00    0.00    0.00     0.00    0.00    0.00    0.00
   88    0.00    0.00    0.02    0.00    0.00    0.00  164.88    2.64    5.10    0.02    0.00    0.00    0.00    0.00    0.00     0.00    0.00    0.00    0.00
   89    0.00    0.00    0.02    0.00    0.00    0.00  163.14    1.74    3.71    0.02    0.00    0.00    0.00    0.00    0.00     0.00    0.00    0.00    0.00
   90    5.57    0.12    0.02    0.00    0.00    0.00  167.52    1.05    1.30    0.13    0.00    0.00    0.00    0.00    0.00     0.01    0.00    0.00    0.00
   91    0.00    0.00    0.02    0.00    0.00    0.00  166.17    1.35    2.15    0.02    0.00    0.00    0.00    0.00    0.00     0.00    0.00    0.00    0.00
    3   78.03    4.62    0.56    0.00    3.68    0.00  166.17   66.85  109.79    5.18    0.17    0.02    0.01    0.56    0.00     0.25    0.00    0.03    0.00
   92    0.00    0.00    0.02    0.00    0.00    0.00  163.83    2.34    4.09    0.02    0.00    0.00    0.00    0.00    0.00     0.00    0.00    0.00    0.00
   93    0.00    0.00    0.02    0.00    0.00    0.00  161.26    2.57    5.04    0.02    0.00    0.00    0.00    0.00    0.00     0.00    0.00    0.00    0.00
   94    0.00    0.00    0.01    0.00    0.00    0.00  159.18    2.07    4.56    0.01    0.00    0.00    0.00    0.00    0.00     0.00    0.00    0.00    0.00
   95    0.00    0.00    0.01    0.00    0.00    0.00  156.70    2.49    5.91    0.01    0.00    0.00    0.00    0.00    0.00     0.00    0.00    0.00    0.00
   96    0.00    0.00    0.01    0.00    0.00    0.00  154.20    2.49    6.37    0.01    0.00    0.00    0.00    0.00    0.00     0.00    0.00    0.00    0.00
   97    1.21    0.01    0.01    0.00    0.00    0.00  153.20    2.20    4.96    0.02    0.00    0.00    0.00    0.00    0.00     0.00    0.00    0.00    0.00
   98    4.87    0.12    0.01    0.00    0.00    0.00  155.81    2.12    4.93    0.13    0.01    0.00    0.00    0.00    0.00     0.01    0.00    0.00    0.00
   99    0.00    0.00    0.01    0.00    0.00    0.00  153.48    2.33    5.07    0.01    0.00    0.00    0.00    0.00    0.00     0.00    0.00    0.00    0.00
  100    3.32    0.17    0.01    0.00    0.00    0.00  153.27    3.35    5.43    0.19    0.01    0.01    0.00    0.00    0.00     0.01    0.00    0.00    0.00
  101    0.00    0.00    0.01    0.00    0.00    0.00  150.85    2.42    5.66    0.01    0.00    0.00    0.00    0.00    0.00     0.00    0.00    0.00    0.00
  102    0.44    0.00    0.01    0.00    0.00    0.00  149.63    1.67    3.46    0.01    0.00    0.00    0.00    0.00    0.00     0.00    0.00    0.00    0.00
  103    7.64    0.53    0.02    0.00    0.00    0.00  155.80    0.91    1.07    0.54    0.03    0.00    0.00    0.00    0.00     0.03    0.00    0.00    0.00
  104    0.51    0.00    0.01    0.00    0.00    0.00  154.60    1.70    2.61    0.01    0.00    0.00    0.00    0.00    0.00     0.00    0.00    0.00    0.00
  105    0.16    0.00    0.01    0.00    0.00    0.00  152.49    2.28    3.94    0.01    0.00    0.00    0.00    0.00    0.00     0.00    0.00    0.00    0.00
  106    9.19    0.87    0.02    0.00    0.00    0.00  156.34    4.43    5.68    0.89    0.08    0.00    0.00    0.00    0.00     0.08    0.00    0.01    0.00
  107    0.00    0.00    0.01    0.00    0.00    0.00  153.38    2.96    5.10    0.02    0.00    0.00    0.00    0.00    0.00     0.00    0.00    0.00    0.00
  108    0.00    0.00    0.01    0.00    0.00    0.00  150.63    2.76    5.58    0.01    0.00    0.00    0.00    0.00    0.00     0.00    0.00    0.00    0.00
  109    0.00    0.00    0.01    0.00    0.00    0.00  147.86    2.77    6.03    0.01    0.00    0.00    0.00    0.00    0.58     0.00    0.00    0.00    0.00
  110    0.00    0.00    0.01    0.00    0.00    0.00  144.76    3.11    7.00    0.01    0.00    0.00    0.00    0.00    1.07     0.00    0.00    0.00    0.00
  111    0.00    0.00    0.01    0.00    0.00    0.00  142.15    2.61    5.85    0.01    0.00    0.00    0.00    0.00    1.49     0.00    0.00    0.00    0.00
  112    0.00    0.00    0.01    0.00    0.00    0.00  139.63    2.52    6.14    0.01    0.00    0.00    0.00    0.00    1.85     0.00    0.00    0.00    0.00
  113    0.00    0.00    0.01    0.00    0.00    0.00  136.99    2.63    6.88    0.01    0.00    0.00    0.00    0.00    2.27     0.00    0.00    0.00    0.00
  114    0.00    0.00    0.01    0.00    0.00    0.00  134.41    2.59    6.70    0.01    0.00    0.00    0.00    0.00    2.56     0.00    0.00    0.00    0.00
  115    0.00    0.00    0.01    0.00    0.00    0.00  132.08    2.33    5.75    0.01    0.00    0.00    0.00    0.00    2.92     0.00    0.00    0.00    0.00
  116    0.00    0.00    0.01    0.00    0.00    0.00  129.99    2.09    5.80    0.01    0.00    0.00    0.00    0.00    1.11     0.00    0.00    0.00    0.00
  117    6.99    0.20    0.01    0.00    0.00    0.00  134.65    2.09    3.64    0.21    0.00    0.00    0.00    0.00    0.21     0.01    0.00    0.00    0.00
  118    0.00    0.00    0.01    0.00    0.00    0.00  132.13    2.52    5.37    0.01    0.00    0.00    0.00    0.00    3.12     0.00    0.00    0.00    0.00
  119    0.00    0.00    0.01    0.00    0.00    0.00  129.96    2.17    4.82    0.01    0.00    0.00    0.00    0.00    0.10     0.00    0.00    0.00    0.00
  120    0.00    0.00    0.01    0.00    0.00    0.00  127.83    2.13    4.86    0.01    0.00    0.00    0.00    0.00    3.36     0.00    0.00    0.00    0.00
  121    1.71    0.02    0.01    0.00    0.00    0.00  126.74    2.78    4.42    0.03    0.00    0.10    0.00    0.00    3.21     0.00    0.00    0.00    0.00
    4   36.05    1.91    0.37    0.00    0.00    0.00  126.74   73.41  152.71    2.28    0.12    0.11    0.01    0.00   23.86     0.13    0.00    0.02    0.00
  122    0.00    0.00    0.01    0.00    0.00    0.00  124.46    2.28    4.72    0.01    0.00    0.00    0.00    0.00    3.62     0.00    0.00    0.00    0.00
  123    0.00    0.00    0.01    0.00    0.00    0.00  122.45    2.01    5.28    0.01    0.00    0.00    0.00    0.00    5.15     0.00    0.00    0.00    0.00
  124    0.35    0.00    0.01    0.00    0.00    0.00  120.84    1.96    4.14    0.01    0.00    0.00    0.00    0.00    3.14     0.00    0.00    0.00    0.00
  125    0.00    0.00    0.01    0.00    0.00    0.00  118.94    1.90    4.75    0.01    0.00    0.00    0.00    0.00    0.07     0.00    0.00    0.00    0.00
  126    0.51    0.00    0.01    0.00    0.00    0.00  117.39    2.05    4.32    0.01    0.00    0.00    0.00    0.00    1.25     0.00    0.00    0.00    0.00
  127    7.33    0.21    0.01    0.00    0.00    0.00  121.47    3.00    4.66    0.21    0.00    0.13    0.00    0.00    1.28     0.00    0.00    0.00    0.00
  128    0.00    0.00    0.01    0.00    0.00    0.00  117.83    3.65    6.58    0.01    0.00    0.00    0.00    0.00    2.04     0.00    0.00    0.00    0.00
  129    0.00    0.00    0.01    0.00    0.00    0.00  114.66    3.17    6.87    0.01    0.00    0.00    0.00    0.00    2.42     0.00    0.00    0.00    0.00
  130    0.00    0.00    0.01    0.00    0.00    0.00  111.56    3.10    5.97    0.01    0.00    0.00    0.00    0.00    2.63     0.00    0.00    0.00    0.00
  131    0.00    0.00    0.01    0.00    0.00    0.00  108.70    2.86    6.12    0.01    0.00    0.00    0.00    0.00    2.82     0.00    0.00    0.00    0.00
  132    0.00    0.00    0.01    0.00    0.00    0.00  105.69    3.01    6.78    0.01    0.00    0.00    0.00    0.00    3.01     0.00    0.00    0.00    0.00
  133   10.21    0.95    0.01    0.00    0.00    0.00  111.05    3.87    5.01    0.96    0.00    1.00    0.00    0.00    2.37     0.01    0.00    0.00    0.00
  134    0.00    0.00    0.01    0.00    0.00    0.00  107.69    3.37    6.10    0.01    0.00    0.00    0.00    0.00    8.78     0.00    0.00    0.00    0.00
  135    0.00    0.00    0.01    0.00    0.00    0.00  104.23    3.45    6.23    0.01    0.00    0.00    0.00    0.00    9.50     0.00    0.00    0.00    0.00
  136    0.95    0.00    0.01    0.00    0.00    0.00  101.39    3.80    5.61    0.01    0.00    0.00    0.00    0.00    9.18     0.00    0.00    0.00    0.00
  137    6.13    0.41    0.01    0.00    0.00    0.00  102.81    4.27    4.98    0.42    0.00    0.06    0.00    0.00    8.05     0.00    0.00    0.00    0.00
  138    0.18    0.00    0.01    0.00    0.00    0.00   99.81    3.18    4.50    0.01    0.00    0.00    0.00    0.00    6.69     0.00    0.00    0.00    0.00
  139    0.99    0.00    0.01    0.00    0.00    0.00   96.73    4.08    5.09    0.01    0.00    0.00    0.00    0.00    9.10     0.00    0.00    0.00    0.00
  140    8.31    0.17    0.01    0.00    0.00    0.00   99.40    5.43    4.62    0.18    0.00    0.01    0.00    0.00    6.88     0.00    0.00    0.00    0.00
  141    2.47    0.02    0.01    0.00    0.00    0.00   98.96    2.89    1.89    0.03    0.00    0.00    0.00    0.00    2.89     0.00    0.00    0.00    0.00
  142    0.00    0.00    0.01    0.00    0.00    0.00   94.27    4.69    6.37    0.01    0.00    0.00    0.00    0.00    6.61     0.00    0.00    0.00    0.00
  143    0.00    0.00    0.01    0.00    0.00    0.00   90.22    4.05    6.79    0.01    0.00    0.00    0.00    0.00    1.06     0.00    0.00    0.00    0.00
  144    2.76    0.04    0.01    0.00    0.00    0.00   88.54    4.40    4.46    0.05    0.00    0.00    0.00    0.00    0.96     0.00    0.00    0.00    0.00
  145    0.18    0.00    0.01    0.00    0.00    0.00   84.91    3.80    5.87    0.01    0.00    0.00    0.00    0.00    1.16     0.00    0.00    0.00    0.00
  146    0.00    0.00    0.01    0.00    0.00    0.00   80.77    4.14    7.29    0.01    0.00    0.00    0.00    0.00    0.27     0.00    0.00    0.00    0.00
  147    0.00    0.00    0.01    0.00    0.00    0.00   76.83    3.94    7.90    0.01    0.00    0.00    0.00    0.00    0.23     0.00    0.00    0.00    0.00
  148    0.60    0.00    0.01    0.00    0.00    0.00   73.95    3.48    5.59    0.01    0.00    0.00    0.00    0.00    0.23     0.00    0.00    0.00    0.00
  149    0.00    0.00    0.01    0.00    0.00    0.00   71.04    2.91    7.46    0.01    0.00    0.00    0.00    0.00    0.20     0.00    0.00    0.00    0.00
  150    0.00    0.00    0.01    0.00    0.00    0.00   69.01    2.03    6.32    0.01    0.00    0.00    0.00    0.00    0.22     0.00    0.00    0.00    0.00
  151    5.52    0.27    0.01    0.00    0.00    0.00   70.16    4.08    3.78    0.28    0.00    0.00    0.00    0.00    0.20     0.00    0.00    0.00    0.00
  152    9.15    0.62    0.01    0.00    0.00    0.00   74.15    4.51    3.46    0.63    0.00    0.00    0.00    0.00    0.18     0.00    0.00    0.00    0.00
    5   55.65    2.69    0.25    0.00    0.00    0.00   74.15  105.36  169.51    2.94    0.01    1.20    0.01    0.00  102.20     0.01    0.00    0.00    0.00
  153    5.73    0.11    0.01    0.00    0.00    0.00   73.03    6.71    7.63    0.12    0.00    0.00    0.00    0.00    0.19     0.00    0.00    0.00    0.00
  154    3.88    0.05    0.01    0.00    0.00    0.00   70.81    6.04    6.67    0.06    0.00    0.00    0.00    0.00    0.17     0.00    0.00    0.00    0.00
  155    1.53    0.00    0.01    0.00    0.00    0.00   66.34    5.99    7.20    0.01    0.00    0.00    0.00    0.00    0.42     0.00    0.00    0.00    0.00
  156   23.64    2.12    0.02    0.00    0.00    0.00   81.21    6.55    3.97    2.14    0.00    0.01    0.00    0.00    0.17     0.00    0.00    0.00    0.00
  157    7.11    0.15    0.01    0.00    0.00    0.00   83.50    4.64    3.53    0.17    0.00    0.00    0.00    0.00    0.39     0.00    0.00    0.00    0.00
  158    2.41    0.00    0.01    0.00    0.00    0.00   81.02    4.89    4.02    0.02    0.00    0.00    0.00    0.00    0.07     0.00    0.00    0.00    0.00
  159    2.26    0.00    0.01    0.00    0.00    0.00   77.96    5.32    4.87    0.01    0.00    0.00    0.00    0.00    0.16     0.00    0.00    0.00    0.00
  160    9.64    0.73    0.01    0.00    0.00    0.00   81.31    5.52    4.73    0.74    0.00    0.00    0.00    0.00    0.11     0.00    0.00    0.00    0.00
  161    0.00    0.00    0.01    0.00    0.00    0.00   75.81    5.51    6.72    0.01    0.00    0.00    0.00    0.00    0.22     0.00    0.00    0.00    0.00
  162    0.00    0.00    0.01    0.00    0.00    0.00   70.39    5.42    7.61    0.01    0.00    0.00    0.00    0.00    0.10     0.00    0.00    0.00    0.00
  163    3.57    0.03    0.01    0.00    0.00    0.00   67.37    6.55    6.53    0.04    0.00    0.00    0.00    0.00    0.09     0.00    0.00    0.00    0.00
  164   33.32    3.98    0.03    0.00    0.00    0.00   89.33    7.15    6.15    4.01    0.01    0.01    0.00    0.00    0.05     0.01    0.00    0.00    0.00
  165    0.00    0.00    0.02    0.00    0.00    0.00   84.33    4.99    6.01    0.03    0.00    0.00    0.00    0.00    0.35     0.00    0.00    0.00    0.00
  166    0.00    0.00    0.02    0.00    0.00    0.00   79.43    4.90    6.20    0.02    0.00    0.00    0.00    0.00    0.09     0.00    0.00    0.00    0.00
  167    3.18    0.02    0.02    0.00    0.00    0.00   77.01    5.58    4.81    0.04    0.00    0.00    0.00    0.00    0.08     0.00    0.00    0.00    0.00
  168   15.69    0.57    0.02    0.00    0.00    0.00   84.82    7.25    3.60    0.59    0.00    0.00    0.00    0.00    0.06     0.00    0.00    0.00    0.00
  169   26.47    2.32    0.04    0.00    0.00    0.00  100.87    7.93    4.19    2.35    0.00    0.00    0.00    0.00    0.11     0.00    0.00    0.00    0.00
  170    0.00    0.00    0.03    0.00    0.00    0.00   93.13    7.74    8.23    0.03    0.00    0.00    0.00    0.00    0.22     0.00    0.00    0.00    0.00
  171    3.45    0.03    0.02    0.00    0.00    0.00   88.41    8.13    6.80    0.06    0.00    0.00    0.00    0.00    0.02     0.00    0.00    0.00    0.00
  172    5.87    0.24    0.02    0.00    0.00    0.00   86.50    7.53    6.27    0.27    0.00    0.00    0.00    0.00    0.04     0.00    0.00    0.00    0.00
  173    0.00    0.00    0.02    0.00    0.00    0.00   80.95    5.54    6.61    0.02    0.00    0.00    0.00    0.00    0.06     0.00    0.00    0.00    0.00
  174    0.00    0.00    0.02    0.00    0.00    0.00   75.35    5.61    6.84    0.02    0.00    0.00    0.00    0.00    0.04     0.00    0.00    0.00    0.00
  175    5.90    0.11    0.02    0.00    0.00    0.00   74.30    6.82    5.54    0.12    0.00    0.00    0.00    0.00    0.04     0.00    0.00    0.00    0.00
  176   45.46    5.40    0.05    0.00    0.00    0.00  105.98    8.07    4.21    5.45    0.01    0.01    0.00    0.00    0.05     0.01    0.00    0.00    0.00
  177   28.57    3.06    0.06    0.00    0.00    0.00  123.19    8.08    4.48    3.12    0.00    0.01    0.00    0.00    0.38     0.01    0.00    0.00    0.00
  178    7.13    0.10    0.05    0.00    0.00    0.00  122.97    7.23    3.95    0.14    0.00    0.00    0.00    0.00    0.24     0.00    0.00    0.00    0.00
  179    1.34    0.00    0.04    0.00    0.00    0.00  117.65    6.67    5.69    0.04    0.00    0.00    0.00    0.00    0.05     0.00    0.00    0.00    0.00
  180    7.63    0.17    0.03    0.00    0.00    0.00  118.57    6.51    4.81    0.20    0.00    0.00    0.00    0.00    0.02     0.00    0.00    0.00    0.00
  181    1.44    0.00    0.03    0.00    0.00    0.00  112.81    7.20    6.20    0.03    0.00    0.00    0.00    0.00    0.06     0.00    0.00    0.00    0.00
  182    4.85    0.01    0.03    0.00    0.00    0.00  111.35    6.30    2.45    0.04    0.00    0.00    0.00    0.00    0.02     0.00    0.00    0.00    0.00
    6  250.06   19.21    0.69    0.00    0.00    0.00  111.35  192.38  166.53   19.90    0.02    0.04    0.01    0.00    4.06     0.04    0.00    0.01    0.00
  183    4.83    0.03    0.03    0.00    0.00    0.00  110.18    5.97    3.03    0.06    0.00    0.00    0.00    0.00    0.03     0.00    0.00    0.00    0.00
  184    1.08    0.00    0.03    0.00    0.00    0.00  104.65    6.60    5.88    0.03    0.00    0.00    0.00    0.00    0.03     0.00    0.00    0.00    0.00
  185    0.18    0.00    0.02    0.00    0.00    0.00  100.43    4.40    4.60    0.02    0.00    0.00    0.00    0.00    0.02     0.00    0.00    0.00    0.00
  186    0.00    0.00    0.02    0.00    0.00    0.00   94.65    5.78    6.90    0.02    0.00    0.00    0.00    0.00    0.02     0.00    0.00    0.00    0.00
  187    4.20    0.02    0.02    0.00    0.00    0.00   91.90    6.94    4.16    0.04    0.00    0.00    0.00    0.00    0.02     0.00    0.00    0.00    0.00
  188    1.71    0.00    0.02    0.00    0.00    0.00   86.33    7.28    6.53    0.02    0.00    0.00    0.00    0.00    0.03     0.00    0.00    0.00    0.00
  189    0.00    0.00    0.02    0.00    0.00    0.00   79.43    6.90    8.56    0.02    0.00    0.00    0.00    0.00    0.02     0.00    0.00    0.00    0.00
  190    0.18    0.00    0.02    0.00    0.00    0.00   74.29    5.31    5.89    0.02    0.00    0.00    0.00    0.00    0.02     0.00    0.00    0.00    0.00
  191   10.70    0.28    0.02    0.00    0.00    0.00   76.81    7.84    6.37    0.30    0.00    0.00    0.00    0.00    0.47     0.00    0.00    0.00    0.00
  192    3.08    0.02    0.02    0.00    0.00    0.00   72.44    7.43    5.72    0.04    0.00    0.00    0.00    0.00    0.39     0.00    0.00    0.00    0.00
  193    2.56    0.01    0.02    0.00    0.00    0.00   67.23    7.77    6.39    0.03    0.00    0.00    0.00    0.00    0.51     0.00    0.00    0.00    0.00
  194    2.84    0.01    0.02    0.00    0.00    0.00   63.21    6.84    5.71    0.03    0.00    0.00    0.00    0.00    0.37     0.00    0.00    0.00    0.00
  195    0.00    0.00    0.02    0.00    0.00    0.00   56.75    6.47    7.68    0.02    0.00    0.00    0.00    0.00    0.39     0.00    0.00    0.00    0.00
  196    0.00    0.00    0.02    0.00    0.00    0.00   50.80    5.94    8.24    0.02    0.00    0.00    0.00    0.00    0.02     0.00    0.00    0.00    0.00
  197    3.41    0.02    0.02    0.00    0.00    0.00   46.41    7.78    8.67    0.04    0.00    0.00    0.00    0.00    0.02     0.00    0.00    0.00    0.00
  198    0.58    0.00    0.02    0.00    0.00    0.00   41.44    5.54    7.31    0.02    0.00    0.00    0.00    0.00    0.03     0.00    0.00    0.00    0.00
  199    1.85    0.00    0.02    0.00    0.00    0.00   37.40    5.89    5.69    0.02    0.00    0.00    0.00    0.00    0.03     0.00    0.00    0.00    0.00
  200   21.96    1.17    0.02    0.00    0.00    0.00   49.71    8.38    4.73    1.19    0.00    0.00    0.00    0.00    0.03     0.00    0.00    0.00    0.00
  201    0.00    0.00    0.02    0.00    0.00    0.00   43.79    5.92    7.15    0.02    0.00    0.00    0.00    0.00    0.13     0.00    0.00    0.00    0.00
  202   14.73    1.32    0.02    0.00    0.00    0.00   49.81    7.33    5.86    1.35    0.00    0.00    0.00    0.00    0.03     0.00    0.00    0.00    0.00
  203    2.55    0.00    0.02    0.00    0.00    0.00   45.28    7.06    5.68    0.03    0.00    0.00    0.00    0.00    0.13     0.00    0.00    0.00    0.00
  204   22.13    0.94    0.03    0.00    0.00    0.00   58.98    7.38    3.61    0.97    0.00    0.00    0.00    0.00    0.03     0.00    0.00    0.00    0.00
  205    0.00    0.00    0.02    0.00    0.00    0.00   51.99    6.99    8.17    0.02    0.00    0.00    0.00    0.00    0.12     0.00    0.00    0.00    0.00
  206    0.00    0.00    0.02    0.00    0.00    0.00   45.98    6.00    8.23    0.02    0.00    0.00    0.00    0.00    0.02     0.00    0.00    0.00    0.00
  207    0.00    0.00    0.02    0.00    0.00    0.00   40.87    5.11    7.84    0.02    0.00    0.00    0.00    0.00    0.03     0.00    0.00    0.00    0.00
  208   28.21    1.03    0.03    0.00    0.00    0.00   61.73    6.06    5.68    1.06    0.00    0.00    0.00    0.00    0.07     0.00    0.00    0.00    0.00
  209    4.45    0.09    0.03    0.00    0.00    0.00   59.64    6.44    5.07    0.12    0.00    0.00    0.00    0.00    0.14     0.00    0.00    0.00    0.00
  210    3.31    0.02    0.03    0.00    0.00    0.00   56.71    6.22    4.96    0.04    0.00    0.00    0.00    0.00    0.09     0.00    0.00    0.00    0.00
  211    2.65    0.00    0.03    0.00    0.00    0.00   54.51    4.85    3.24    0.03    0.00    0.00    0.00    0.00    0.08     0.00    0.00    0.00    0.00
  212   11.20    0.24    0.03    0.00    0.00    0.00   58.29    7.15    3.77    0.27    0.00    0.00    0.00    0.00    0.01     0.00    0.00    0.00    0.00
  213   21.59    2.04    0.04    0.00    0.00    0.00   69.99    7.76    4.37    2.07    0.00    0.00    0.00    0.00    0.06     0.01    0.00    0.00    0.00
    7  169.97    7.24    0.71    0.00    0.00    0.00   69.99  203.36  185.68    7.94    0.01    0.01    0.00    0.00    3.40     0.02    0.00    0.00    0.00
  214    0.90    0.00    0.03    0.00    0.00    0.00   65.02    5.86    5.61    0.03    0.00    0.00    0.00    0.00    0.18     0.00    0.00    0.00    0.00
  215    6.01    0.15    0.03    0.00    0.00    0.00   63.83    7.04    4.54    0.18    0.00    0.00    0.00    0.00    0.04     0.00    0.00    0.00    0.00
  216    2.92    0.00    0.03    0.00    0.00    0.00   60.38    6.38    4.24    0.03    0.00    0.00    0.00    0.00    0.06     0.00    0.00    0.00    0.00
  217    4.39    0.08    0.03    0.00    0.00    0.00   57.95    6.73    5.30    0.11    0.00    0.00    0.00    0.00    0.02     0.00    0.00    0.00    0.00
  218    0.00    0.00    0.02    0.00    0.00    0.00   52.94    5.01    6.92    0.02    0.00    0.00    0.00    0.00    0.07     0.00    0.00    0.00    0.00
  219    2.94    0.00    0.02    0.00    0.00    0.00   49.88    6.00    4.74    0.02    0.00    0.00    0.00    0.00    0.08     0.00    0.00    0.00    0.00
  220   16.00    1.27    0.03    0.00    0.00    0.00   56.63    7.93    4.56    1.30    0.00    0.00    0.00    0.00    0.03     0.00    0.00    0.00    0.00
  221    0.71    0.00    0.02    0.00    0.00    0.00   52.58    4.76    4.40    0.03    0.00    0.00    0.00    0.00    0.12     0.00    0.00    0.00    0.00
  222    0.00    0.00    0.02    0.00    0.00    0.00   48.17    4.41    5.49    0.02    0.00    0.00    0.00    0.00    0.04     0.00    0.00    0.00    0.00
  223    0.00    0.00    0.02    0.00    0.00    0.00   43.68    4.49    6.80    0.02    0.00    0.00    0.00    0.00    0.08     0.00    0.00    0.00    0.00
  224    0.00    0.00    0.02    0.00    0.00    0.00   39.58    4.10    6.64    0.02    0.00    0.00    0.00    0.00    0.08     0.00    0.00    0.00    0.00
  225   14.06    1.24    0.03    0.00    0.00    0.00   47.59    4.76    3.60    1.26    0.00    0.00    0.00    0.00    0.09     0.00    0.00    0.00    0.00
  226   11.92    0.51    0.03    0.00    0.00    0.00   51.52    7.42    3.55    0.54    0.00    0.00    0.00    0.00    0.18     0.00    0.00    0.00    0.00
  227   17.06    0.67    0.03    0.00    0.00    0.00   61.76    6.07    2.08    0.70    0.00    0.00    0.00    0.00    0.12     0.00    0.00    0.00    0.00
  228    0.00    0.00    0.03    0.00    0.00    0.00   57.63    4.14    4.72    0.03    0.00    0.00    0.00    0.00    0.10     0.00    0.00    0.00    0.00
  229    0.00    0.00    0.02    0.00    0.00    0.00   52.70    4.92    5.38    0.02    0.00    0.00    0.00    0.00    0.07     0.00    0.00    0.00    0.00
  230    0.00    0.00    0.02    0.00    0.00    0.00   48.00    4.70    5.46    0.02    0.00    0.00    0.00    0.00    0.08     0.00    0.00    0.00    0.00
  231    0.00    0.00    0.02    0.00    0.00    0.00   43.18    4.82    5.67    0.02    0.00    0.00    0.00    0.00    0.08     0.00    0.00    0.00    0.00
  232    0.00    0.00    0.02    0.00    0.00    0.00   38.08    5.10    5.93    0.02    0.00    0.00    0.00    0.00    0.08     0.00    0.00    0.00    0.00
  233   29.05    2.79    0.03    0.00    0.00    0.00   55.62    8.57    4.74    2.82    0.00    0.01    0.00    0.00    0.08     0.01    0.00    0.00    0.00
  234    1.48    0.00    0.03    0.00    0.00    0.00   51.32    5.78    4.84    0.03    0.00    0.00    0.00    0.00    0.04     0.00    0.00    0.00    0.00
  235    0.00    0.00    0.02    0.00    0.00    0.00   46.51    4.81    6.58    0.02    0.00    0.00    0.00    0.00    0.02     0.00    0.00    0.00    0.00
  236    4.02    0.13    0.02    0.00    0.00    0.00   46.64    3.76    3.59    0.16    0.00    0.00    0.00    0.00    0.31     0.00    0.00    0.00    0.00
  237    6.44    0.13    0.02    0.00    0.00    0.00   47.13    5.79    4.46    0.15    0.00    0.00    0.00    0.00    0.17     0.00    0.00    0.00    0.00
  238    0.00    0.00    0.02    0.00    0.00    0.00   42.65    4.48    5.57    0.02    0.00    0.00    0.00    0.00    0.36     0.00    0.00    0.00    0.00
  239    0.06    0.00    0.02    0.00    0.00    0.00   39.15    3.56    5.22    0.02    0.00    0.00    0.00    0.00    0.40     0.00    0.00    0.00    0.00
  240    0.10    0.00    0.02    0.00    0.00    0.00   35.44    3.81    5.09    0.02    0.00    0.00    0.00    0.00    0.43     0.00    0.00    0.00    0.00
  241    0.00    0.00    0.02    0.00    0.00    0.00   31.55    3.88    5.71    0.02    0.00    0.00    0.00    0.00    0.46     0.00    0.00    0.00    0.00
  242    0.73    0.00    0.02    0.00    0.00    0.00   28.37    3.91    4.68    0.02    0.00    0.00    0.00    0.00    0.29     0.00    0.00    0.00    0.00
  243    0.90    0.00    0.02    0.00    0.00    0.00   25.66    3.61    5.55    0.02    0.00    0.00    0.00    0.00    0.32     0.00    0.00    0.00    0.00
  244    3.80    0.11    0.02    0.00    0.00    0.00   25.30    4.04    4.30    0.13    0.00    0.00    0.00    0.00    0.55     0.00    0.00    0.00    0.00
    8  123.49    7.08    0.73    0.00    0.00    0.00   25.30  160.64  155.97    7.82    0.01    0.02    0.00    0.00    5.02     0.02    0.00    0.00    0.00
  245    2.83    0.01    0.02    0.00    0.00    0.00   23.04    5.07    4.57    0.03    0.00    0.00    0.00    0.00    0.32     0.00    0.00    0.00    0.00
  246    3.23    0.02    0.02    0.00    0.00    0.00   21.69    4.55    4.36    0.04    0.00    0.00    0.00    0.00    0.33     0.00    0.00    0.00    0.00
  247    0.00    0.00    0.02    0.00    0.00    0.00   19.65    2.04    4.78    0.02    0.00    0.00    0.00    0.00    0.51     0.00    0.00    0.00    0.00
  248    0.00    0.00    0.01    0.00    0.00    0.00   18.31    1.34    4.83    0.01    0.00    0.00    0.00    0.00    0.51     0.00    0.00    0.00    0.00
  249    0.00    0.00    0.01    0.00    0.00    0.00   17.19    1.12    5.24    0.01    0.00    0.00    0.00    0.00    0.53     0.00    0.00    0.00    0.00
  250    0.00    0.00    0.01    0.00    0.00    0.00   16.50    0.70    4.64    0.01    0.00    0.00    0.00    0.00    0.43     0.00    0.00    0.00    0.00
  251    2.00    0.00    0.01    0.00    0.00    0.00   16.53    1.97    2.92    0.02    0.00    0.00    0.00    0.00    0.05     0.00    0.00    0.00    0.00
  252    1.74    0.00    0.01    0.00    0.00    0.00   15.95    2.31    3.72    0.01    0.00    0.00    0.00    0.00    0.04     0.00    0.00    0.00    0.00
  253    0.00    0.00    0.01    0.00    0.00    0.00   14.53    1.42    5.68    0.01    0.00    0.00    0.00    0.00    0.04     0.00    0.00    0.00    0.00
  254    0.00    0.00    0.01    0.00    0.00    0.00   13.35    1.18    4.25    0.01    0.00    0.00    0.00    0.00    0.05     0.00    0.00    0.00    0.00
  255    2.00    0.00    0.01    0.00    0.00    0.00   12.95    2.40    3.63    0.01    0.00    0.00    0.00    0.00    0.04     0.00    0.00    0.00    0.00
  256    0.04    0.00    0.01    0.00    0.00    0.00   12.13    0.85    3.00    0.01    0.00    0.00    0.00    0.00    0.02     0.00    0.00    0.00    0.00
  257    5.88    0.10    0.01    0.00    0.00    0.00   13.10    4.81    2.40    0.12    0.00    0.00    0.00    0.00    0.02     0.00    0.00    0.00    0.00
  258    4.49    0.02    0.01    0.00    0.00    0.00   13.07    4.50    2.13    0.03    0.00    0.00    0.00    0.00    0.02     0.00    0.00    0.00    0.00
  259    2.06    0.00    0.01    0.00    0.00    0.00   11.76    3.36    3.58    0.02    0.00    0.00    0.00    0.00    0.02     0.00    0.00    0.00    0.00
  260    2.32    0.01    0.01    0.00    0.00    0.00   11.72    2.35    3.38    0.02    0.00    0.00    0.00    0.00    0.03     0.00    0.00    0.00    0.00
  261    3.88    0.08    0.01    0.00    0.00    0.00   12.74    2.77    2.82    0.09    0.00    0.00    0.00    0.00    0.02     0.00    0.00    0.00    0.00
  262   13.61    1.45    0.02    0.00    0.00    0.00   20.91    3.94    6.75    1.47    0.00    0.00    0.00    0.00    0.02     0.00    0.00    0.00    0.00
  263    0.00    0.00    0.01    0.00    0.00    0.00   18.54    2.37    5.97    0.02    0.00    0.00    0.00    0.00    0.02     0.00    0.00    0.00    0.00
  264    0.00    0.00    0.01    0.00    0.00    0.00   16.90    1.63    4.84    0.01    0.00    0.00    0.00    0.00    0.02     0.00    0.00    0.00    0.00
  265    0.00    0.00    0.01    0.00    0.00    0.00   15.40    1.50    4.23    0.01    0.00    0.00    0.00    0.00    0.02     0.00    0.00    0.00    0.00
  266    0.00    0.00    0.01    0.00    0.00    0.00   13.81    1.59    3.71    0.01    0.00    0.00    0.00    0.00    0.02     0.00    0.00    0.00    0.00
  267    0.00    0.00    0.01    0.00    0.00    0.00   12.20    1.61    4.71    0.01    0.00    0.00    0.00    0.00    0.02     0.00    0.00    0.00    0.00
  268    2.03    0.03    0.01    0.00    0.00    0.00   11.31    2.89    3.95    0.04    0.00    0.00    0.00    0.00    0.02     0.00    0.00    0.00    0.00
  269    2.00    0.03    0.01    0.00    0.00    0.00   10.75    2.53    3.37    0.04    0.00    0.00    0.00    0.00    0.00     0.00    0.00    0.00    0.00
  270    0.00    0.00    0.01    0.00    0.00    0.00    9.49    1.25    4.18    0.01    0.00    0.00    0.00    0.00    0.00     0.00    0.00    0.00    0.00
  271    0.00    0.00    0.01    0.00    0.00    0.00    8.86    0.64    3.87    0.01    0.00    0.00    0.00    0.00    0.00     0.00    0.00    0.00    0.00
  272    0.00    0.00    0.01    0.00    0.00    0.00    8.21    0.65    4.49    0.01    0.00    0.00    0.00    0.00    0.00     0.00    0.00    0.00    0.00
  273    0.00    0.00    0.01    0.00    0.00    0.00    7.69    0.52    3.89    0.01    0.00    0.00    0.00    0.00    0.00     0.00    0.00    0.00    0.00
  274    0.00    0.00    0.01    0.00    0.00    0.00    7.22    0.46    3.55    0.01    0.00    0.00    0.00    0.00    0.00     0.00    0.00    0.00    0.00
    9   48.12    1.77    0.36    0.00    0.00    0.00    7.22   64.33  123.44    2.13    0.00    0.01    0.00    0.00    3.13     0.01    0.00    0.00    0.00
  275    0.00    0.00    0.01    0.00    0.00    0.00    6.96    0.27    2.83    0.01    0.00    0.00    0.00    0.00    0.00     0.00    0.00    0.00    0.00
  276    4.61    0.31    0.01    0.00    0.00    0.00   10.49    0.75    2.25    0.32    0.00    0.01    0.00    0.00    0.00     0.00    0.00    0.00    0.00
  277   10.19    0.32    0.01    0.00    0.00    0.00   18.31    1.99    2.40    0.33    0.00    0.00    0.00    0.00    0.00     0.00    0.00    0.00    0.00
  278   13.58    1.45    0.02    0.00    0.00    0.00   28.78    1.59    2.00    1.46    0.00    0.01    0.00    0.00    0.03     0.01    0.00    0.00    0.00
  279    0.00    0.00    0.01    0.00    0.00    0.00   26.89    1.89    2.79    0.02    0.00    0.00    0.00    0.00    0.00     0.00    0.00    0.00    0.00
  280    0.04    0.00    0.01    0.00    0.00    0.00   25.46    1.47    2.23    0.01    0.00    0.00    0.00    0.00    0.00     0.00    0.00    0.00    0.00
  281    2.28    0.03    0.01    0.00    0.00    0.00   25.70    1.99    1.71    0.05    0.00    0.00    0.00    0.00    0.00     0.00    0.00    0.00    0.00
  282    2.47    0.04    0.01    0.00    0.00    0.00   26.13    2.00    1.84    0.05    0.00    0.00    0.00    0.00    0.00     0.00    0.00    0.00    0.00
  283   10.88    0.35    0.01    0.00    0.00    0.00   34.55    2.00    1.76    0.37    0.00    0.00    0.00    0.00    0.00     0.00    0.00    0.00    0.00
  284    3.48    0.07    0.02    0.00    0.00    0.00   35.92    2.01    1.94    0.09    0.00    0.00    0.00    0.00    0.03     0.00    0.00    0.00    0.00
  285    3.19    0.04    0.02    0.00    0.00    0.00   37.30    1.75    0.91    0.06    0.00    0.00    0.00    0.00    0.01     0.00    0.00    0.00    0.00
  286    0.00    0.00    0.01    0.00    0.00    0.00   35.40    1.91    2.45    0.01    0.00    0.00    0.00    0.00    0.00     0.00    0.00    0.00    0.00
  287   11.19    0.38    0.02    0.00    0.00    0.00   43.74    2.38    1.61    0.40    0.00    0.01    0.00    0.00    0.00     0.00    0.00    0.00    0.00
  288    8.93    0.28    0.02    0.00    0.00    0.00   50.02    2.29    2.04    0.30    0.00    0.00    0.00    0.00    0.02     0.00    0.00    0.00    0.00
  289    0.04    0.00    0.02    0.00    0.00    0.00   48.23    1.83    2.96    0.02    0.00    0.00    0.00    0.00    0.03     0.00    0.00    0.00    0.00
  290    0.00    0.00    0.02    0.00    0.00    0.00   45.69    2.54    4.69    0.02    0.00    0.00    0.00    0.00    0.00     0.00    0.00    0.00    0.00
  291    0.00    0.00    0.02    0.00    0.00    0.00   43.66    2.03    4.30    0.02    0.00    0.00    0.00    0.00    0.00     0.00    0.00    0.00    0.00
  292    0.04    0.00    0.02    0.00    0.00    0.00   42.81    0.89    2.00    0.02    0.00    0.00    0.00    0.00    0.00     0.00    0.00    0.00    0.00
  293   10.73    0.35    0.02    0.00    0.00    0.00   50.95    2.15    2.74    0.37    0.00    0.00    0.00    0.00    0.00     0.00    0.00    0.00    0.00
  294    0.00    0.00    0.02    0.00    0.00    0.00   49.81    1.14    2.58    0.02    0.00    0.00    0.00    0.00    0.03     0.00    0.00    0.00    0.00
  295    0.00    0.00    0.02    0.00    0.00    0.00   48.87    0.94    2.30    0.02    0.00    0.00    0.00    0.00    0.00     0.00    0.00    0.00    0.00
  296    0.00    0.00    0.02    0.00    0.00    0.00   47.97    0.90    2.32    0.02    0.00    0.00    0.00    0.00    0.00     0.00    0.00    0.00    0.00
  297    0.00    0.00    0.02    0.00    0.00    0.00   47.05    0.93    2.34    0.02    0.00    0.00    0.00    0.00    0.00     0.00    0.00    0.00    0.00
  298    0.30    0.00    0.02    0.00    0.00    0.00   46.49    0.86    1.99    0.02    0.00    0.00    0.00    0.00    0.00     0.00    0.00    0.00    0.00
  299    1.08    0.01    0.02    0.00    0.00    0.00   46.08    1.48    2.13    0.02    0.00    0.00    0.00    0.00    0.00     0.00    0.00    0.00    0.00
  300    0.00    0.00    0.02    0.00    0.00    0.00   44.96    1.12    2.61    0.02    0.00    0.00    0.00    0.00    0.00     0.00    0.00    0.00    0.00
  301    0.00    0.00    0.01    0.00    0.00    0.00   44.10    0.86    2.06    0.01    0.00    0.00    0.00    0.00    0.00     0.00    0.00    0.00    0.00
  302    7.50    0.21    0.02    0.00    0.00    0.00   49.94    1.40    0.90    0.22    0.00    0.00    0.00    0.00    0.00     0.00    0.00    0.00    0.00
  303    5.72    0.15    0.02    0.00    0.00    0.00   53.78    1.67    1.74    0.17    0.00    0.00    0.00    0.00    0.02     0.00    0.00    0.00    0.00
  304    0.04    0.00    0.02    0.00    0.00    0.00   52.59    1.23    2.63    0.02    0.00    0.00    0.00    0.00    0.02     0.00    0.00    0.00    0.00
  305    0.00    0.00    0.02    0.00    0.00    0.00   50.92    1.67    3.50    0.02    0.00    0.00    0.00    0.00    0.00     0.00    0.00    0.00    0.00
   10   96.29    3.99    0.49    0.00    0.00    0.00   50.92   47.93   72.56    4.48    0.01    0.04    0.00    0.00    0.25     0.01    0.00    0.00    0.00
  306    0.00    0.00    0.02    0.00    0.00    0.00   49.70    1.22    2.73    0.02    0.00    0.00    0.00    0.00    0.00     0.00    0.00    0.00    0.00
  307    0.00    0.00    0.01    0.00    0.00    0.00   48.77    0.93    2.48    0.01    0.00    0.00    0.00    0.00    0.00     0.00    0.00    0.00    0.00
  308    0.00    0.00    0.01    0.00    0.00    0.00   47.77    1.00    2.72    0.01    0.00    0.00    0.00    0.00    0.00     0.00    0.00    0.00    0.00
  309    7.97    0.71    0.02    0.00    0.00    0.00   53.71    1.28    1.82    0.73    0.00    0.02    0.00    0.00    0.00     0.00    0.00    0.00    0.00
  310    0.00    0.00    0.02    0.00    0.00    0.00   51.44    2.27    4.39    0.02    0.00    0.00    0.00    0.00    0.00     0.00    0.00    0.00    0.00
  311    0.72    0.00    0.01    0.00    0.00    0.00   50.12    2.05    3.02    0.02    0.00    0.00    0.00    0.00    0.00     0.00    0.00    0.00    0.00
  312    0.74    0.00    0.01    0.00    0.00    0.00   49.13    1.72    2.51    0.01    0.00    0.00    0.00    0.00    0.00     0.00    0.00    0.00    0.00
  313    0.99    0.00    0.01    0.00    0.00    0.00   47.83    2.28    4.32    0.02    0.00    0.00    0.00    0.00    0.00     0.00    0.00    0.00    0.00
  314    4.77    0.12    0.01    0.00    0.00    0.00   50.83    1.63    2.54    0.13    0.00    0.00    0.00    0.00    0.00     0.00    0.00    0.00    0.00
  315    0.00    0.00    0.01    0.00    0.00    0.00   50.10    0.72    1.68    0.01    0.00    0.00    0.00    0.00    0.00     0.00    0.00    0.00    0.00
  316    0.00    0.00    0.01    0.00    0.00    0.00   49.52    0.58    1.39    0.01    0.00    0.00    0.00    0.00    0.00     0.00    0.00    0.00    0.00
  317    1.59    0.00    0.01    0.00    0.00    0.00   50.30    0.81    0.52    0.01    0.00    0.00    0.00    0.00    0.00     0.00    0.00    0.00    0.00
  318    0.00    0.00    0.01    0.00    0.00    0.00   48.83    1.46    2.90    0.01    0.00    0.00    0.00    0.00    0.00     0.00    0.00    0.00    0.00
  319    0.00    0.00    0.01    0.00    0.00    0.00   47.65    1.18    3.07    0.01    0.00    0.00    0.00    0.00    0.00     0.00    0.00    0.00    0.00
  320    0.00    0.00    0.01    0.00    0.00    0.00   47.03    0.62    1.50    0.01    0.00    0.00    0.00    0.00    0.00     0.00    0.00    0.00    0.00
  321    0.00    0.00    0.01    0.00    0.00    0.00   46.46    0.57    1.43    0.01    0.00    0.00    0.00    0.00    0.00     0.00    0.00    0.00    0.00
  322    0.00    0.00    0.01    0.00    0.00    0.00   45.69    0.78    2.12    0.01    0.00    0.00    0.00    0.00    0.00     0.00    0.00    0.00    0.00
  323    3.23    0.05    0.01    0.00    0.00    0.00   47.25    1.61    2.03    0.06    0.00    0.00    0.00    0.00    0.01     0.00    0.00    0.00    0.00
  324    0.00    0.00    0.01    0.00    0.00    0.00   46.26    1.00    2.30    0.01    0.00    0.00    0.00    0.00    0.00     0.00    0.00    0.00    0.00
  325    0.00    0.00    0.01    0.00    0.00    0.00   45.34    0.92    2.47    0.01    0.00    0.00    0.00    0.00    0.00     0.00    0.00    0.00    0.00
  326    0.00    0.00    0.01    0.00    0.00    0.00   44.55    0.79    2.24    0.01    0.00    0.00    0.00    0.00    0.00     0.00    0.00    0.00    0.00
  327    0.00    0.00    0.01    0.00    0.00    0.00   43.96    0.59    1.70    0.01    0.00    0.00    0.00    0.00    0.00     0.00    0.00    0.00    0.00
  328    9.40    0.29    0.01    0.00    0.00    0.00   52.12    0.87    1.20    0.30    0.00    0.00    0.00    0.00    0.00     0.00    0.00    0.00    0.00
  329    0.00    0.00    0.01    0.00    0.00    0.00   51.54    0.58    1.55    0.01    0.00    0.00    0.00    0.00    0.01     0.00    0.00    0.00    0.00
  330    8.03    0.72    0.01    0.00    0.00    0.00   56.48    2.33    3.09    0.73    0.00    0.02    0.00    0.00    0.00     0.01    0.00    0.00    0.00
  331    3.40    0.18    0.01    0.00    0.00    0.00   57.94    1.75    2.17    0.20    0.00    0.00    0.00    0.00    0.00     0.00    0.00    0.00    0.00
  332    0.00    0.00    0.01    0.00    0.00    0.00   57.13    0.81    1.42    0.01    0.00    0.00    0.00    0.00    0.00     0.00    0.00    0.00    0.00
  333    0.00    0.00    0.01    0.00    0.00    0.00   56.01    1.13    2.22    0.01    0.00    0.00    0.00    0.00    0.00     0.00    0.00    0.00    0.00
  334    0.00    0.00    0.01    0.00    0.00    0.00   55.16    0.85    1.69    0.01    0.00    0.00    0.00    0.00    0.00     0.00    0.00    0.00    0.00
  335    0.00    0.00    0.01    0.00    0.00    0.00   54.46    0.70    1.48    0.01    0.00    0.00    0.00    0.00    0.00     0.00    0.00    0.00    0.00
   11   40.83    2.09    0.36    0.00    0.00    0.00   54.46   35.02   66.67    2.44    0.00    0.05    0.00    0.00    0.04     0.01    0.00    0.00    0.00
  336    0.00    0.00    0.01    0.00    0.00    0.00   53.09    1.37    3.39    0.01    0.00    0.00    0.00    0.00    0.00     0.00    0.00    0.00    0.00
  337    0.48    0.00    0.01    0.00    0.00    0.00   52.52    1.05    2.06    0.01    0.00    0.00    0.00    0.00    0.00     0.00    0.00    0.00    0.00
  338    0.00    0.00    0.01    0.00    0.00    0.00   51.46    1.06    2.53    0.01    0.00    0.00    0.00    0.00    0.00     0.00    0.00    0.00    0.00
  339    0.00    0.00    0.01    0.00    0.00    0.00   50.84    0.62    1.47    0.01    0.00    0.00    0.00    0.00    0.00     0.00    0.00    0.00    0.00
  340    0.00    0.00    0.01    0.00    0.00    0.00   50.27    0.57    1.27    0.01    0.00    0.00    0.00    0.00    0.00     0.00    0.00    0.00    0.00
  341    2.37    0.04    0.01    0.00    0.00    0.00   51.49    1.11    1.32    0.05    0.00    0.00    0.00    0.00    0.00     0.00    0.00    0.00    0.00
  342    9.66    0.30    0.01    0.00    0.00    0.00   59.74    1.02    1.24    0.31    0.00    0.00    0.00    0.00    0.01     0.00    0.00    0.00    0.00
  343    5.36    0.14    0.01    0.00    0.00    0.00   62.75    2.15    3.63    0.15    0.00    0.00    0.00    0.00    0.01     0.00    0.00    0.00    0.00
  344    2.79    0.10    0.01    0.00    0.00    0.00   64.33    1.11    1.21    0.12    0.00    0.01    0.00    0.00    0.00     0.00    0.00    0.00    0.00
  345    1.73    0.04    0.01    0.00    0.00    0.00   65.42    0.59    0.75    0.05    0.00    0.00    0.00    0.00    0.00     0.00    0.00    0.00    0.00
  346    0.00    0.00    0.01    0.00    0.00    0.00   64.18    1.24    2.01    0.01    0.00    0.00    0.00    0.00    0.00     0.00    0.00    0.00    0.00
  347    0.69    0.00    0.01    0.00    0.00    0.00   63.17    1.69    2.51    0.01    0.00    0.00    0.00    0.00    0.00     0.00    0.00    0.00    0.00
  348    0.48    0.00    0.01    0.00    0.00    0.00   61.65    2.00    3.62    0.01    0.00    0.00    0.00    0.00    0.00     0.00    0.00    0.00    0.00
  349    0.96    0.00    0.01    0.00    0.00    0.00   60.95    1.65    2.71    0.01    0.00    0.00    0.00    0.00    0.00     0.00    0.00    0.00    0.00
  350    0.00    0.00    0.01    0.00    0.00    0.00   60.21    0.74    1.97    0.01    0.00    0.00    0.00    0.00    0.00     0.00    0.00    0.00    0.00
  351    0.00    0.00    0.01    0.00    0.00    0.00   59.67    0.54    1.38    0.01    0.00    0.00    0.00    0.00    0.00     0.00    0.00    0.00    0.00
  352    0.00    0.00    0.01    0.00    0.00    0.00   59.02    0.65    1.60    0.01    0.00    0.00    0.00    0.00    0.00     0.00    0.00    0.00    0.00
  353    2.20    0.03    0.01    0.00    0.00    0.00   60.54    0.64    1.12    0.04    0.00    0.00    0.00    0.00    0.00     0.00    0.00    0.00    0.00
  354    1.69    0.03    0.01    0.00    0.00    0.00   61.27    0.94    1.22    0.04    0.00    0.00    0.00    0.00    0.00     0.00    0.00    0.00    0.00
  355   12.03    0.00    0.01    0.00    0.00    0.00   60.51    0.80    2.17    0.01    0.00    0.00    0.00    0.00    0.00     0.00    0.00    0.00    0.00
  356    0.00    1.24    0.02    0.00    0.00    0.00   69.34    1.84    2.57    1.25    0.01    0.01    0.00    0.00    0.00     0.01    0.00    0.00    0.00
  357    0.00    0.00    0.01    0.00    0.00    0.00   68.14    1.20    2.02    0.01    0.00    0.00    0.00    0.00    0.00     0.00    0.00    0.00    0.00
  358    0.00    0.00    0.01    0.00    0.00    0.00   67.01    1.13    2.15    0.01    0.00    0.00    0.00    0.00    0.00     0.00    0.00    0.00    0.00
  359    6.09    0.04    0.01    0.00    0.00    0.00   68.70    1.03    1.48    0.05    0.00    0.00    0.00    0.00    0.00     0.00    0.00    0.00    0.00
  360    7.26    0.00    0.01    0.00    0.00    0.00   68.34    0.58    0.82    0.01    0.00    0.00    0.00    0.00    0.00     0.00    0.00    0.00    0.00
  361    5.02    0.78    0.02    0.00    0.00    0.00   81.03    1.78    2.00    0.79    0.00    0.01    0.00    0.00    0.00     0.01    0.00    0.00    0.00
  362    5.06    0.13    0.02    0.00    0.00    0.00   84.31    1.60    2.01    0.15    0.00    0.00    0.00    0.00    0.00     0.00    0.00    0.00    0.00
  363    0.00    0.00    0.02    0.00    0.00    0.00   83.51    0.80    1.20    0.02    0.00    0.00    0.00    0.00    0.00     0.00    0.00    0.00    0.00
  364    0.00    0.00    0.01    0.00    0.00    0.00   82.04    1.47    2.39    0.01    0.00    0.00    0.00    0.00    0.00     0.00    0.00    0.00    0.00
  365    0.00    0.00    0.01    0.00    0.00    0.00   80.95    1.09    1.85    0.01    0.00    0.00    0.00    0.00    0.07     0.00    0.00    0.00    0.00
  366    0.00    0.00    0.01    0.00    0.00    0.00   80.07    0.88    1.67    0.01    0.00    0.00    0.00    0.00    0.02     0.00    0.00    0.00    0.00
   12   63.87    2.87    0.36    0.00    0.00    0.00   80.07   34.95   59.34    3.23    0.01    0.03    0.00    0.00    0.10     0.02    0.00    0.00    0.00

 2004 1096.56   62.05    6.02    0.00   16.20    0.00   80.07 1064.54 1378.89   68.08    0.54    1.60    0.07    2.56  142.06     0.80    0.02    0.11    0.00
1
    SWAT Dec 6 2013    VER 2012/Rev 613                                             

    General Input/Output section (file.cio):                                        
    2/7/2013 12:00:00 AM ARCGIS-SWAT interface AV                                   
                                                                                    
Annual Summary for Watershed in year    3 of simulation

UNIT                                    PERCO    TILE                           WATER     SED     NO3     NO3     NO3     NO3        N       P       P
TIME     PREC    SURQ    LATQ     GWQ    LATE       Q     SW       ET     PET   YIELD   YIELD    SURQ    LATQ    PERC    CROP  ORGANIC SOLUBLE ORGANIC TILENO3
         (mm)    (mm)    (mm)    (mm)    (mm)    (mm)    (mm)    (mm)    (mm)    (mm)    (mm)   ------------------(kg nutrient/ha)-------------------- (kg/ha)
    1    0.00    0.00    0.01    0.00    0.00    0.00   79.35    0.73    1.64    0.01    0.00    0.00    0.00    0.00    0.00     0.00    0.00    0.00    0.00
    2    0.00    0.00    0.01    0.00    0.00    0.00   78.61    0.74    1.55    0.01    0.00    0.00    0.00    0.00    0.00     0.00    0.00    0.00    0.00
    3    0.00    0.00    0.01    0.00    0.00    0.00   77.83    0.78    1.74    0.01    0.00    0.00    0.00    0.00    0.00     0.00    0.00    0.00    0.00
    4    0.00    0.00    0.01    0.00    0.00    0.00   76.81    1.02    2.40    0.01    0.00    0.00    0.00    0.00    0.00     0.00    0.00    0.00    0.00
    5    0.00    0.00    0.01    0.00    0.00    0.00   75.66    1.15    2.86    0.01    0.00    0.00    0.00    0.00    0.00     0.00    0.00    0.00    0.00
    6    0.00    0.00    0.01    0.00    0.00    0.00   74.66    1.00    2.66    0.01    0.00    0.00    0.00    0.00    0.00     0.00    0.00    0.00    0.00
    7    0.00    0.00    0.01    0.00    0.00    0.00   73.98    0.68    1.92    0.01    0.00    0.00    0.00    0.00    0.00     0.00    0.00    0.00    0.00
    8    0.03    0.00    0.01    0.00    0.00    0.00   73.48    0.53    1.51    0.01    0.00    0.00    0.00    0.00    0.00     0.00    0.00    0.00    0.00
    9    0.00    0.00    0.01    0.00    0.00    0.00   72.78    0.71    2.13    0.01    0.00    0.00    0.00    0.00    0.00     0.00    0.00    0.00    0.00
   10    0.00    0.00    0.01    0.00    0.00    0.00   72.22    0.55    1.75    0.01    0.00    0.00    0.00    0.00    0.00     0.00    0.00    0.00    0.00
   11    0.00    0.00    0.01    0.00    0.00    0.00   71.66    0.57    1.85    0.01    0.00    0.00    0.00    0.00    0.00     0.00    0.00    0.00    0.00
   12    0.00    0.00    0.01    0.00    0.00    0.00   71.14    0.52    1.75    0.01    0.00    0.00    0.00    0.00    0.00     0.00    0.00    0.00    0.00
   13    0.00    0.00    0.01    0.00    0.00    0.00   70.30    0.84    2.90    0.01    0.00    0.00    0.00    0.00    0.00     0.00    0.00    0.00    0.00
   14   24.69    1.79    0.02    0.00    0.00    0.00   90.44    2.58    3.05    1.81    0.02    0.02    0.00    0.00    0.00     0.03    0.00    0.00    0.00
   15   11.28    0.64    0.02    0.00    0.00    0.00   99.38    1.60    1.89    0.67    0.00    0.00    0.00    0.00    0.00     0.01    0.00    0.00    0.00
   16    0.00    0.00    0.02    0.00    0.00    0.00   97.13    2.25    2.89    0.02    0.00    0.00    0.00    0.00    0.00     0.00    0.00    0.00    0.00
   17    0.21    0.00    0.02    0.00    0.00    0.00   95.28    2.05    2.97    0.02    0.00    0.00    0.00    0.00    0.00     0.00    0.00    0.00    0.00
   18    0.00    0.00    0.02    0.00    0.00    0.00   94.19    1.10    1.84    0.02    0.00    0.00    0.00    0.00    0.00     0.00    0.00    0.00    0.00
   19    0.00    0.00    0.02    0.00    0.00    0.00   93.37    0.81    1.48    0.02    0.00    0.00    0.00    0.00    0.00     0.00    0.00    0.00    0.00
   20    1.44    0.00    0.01    0.00    0.00    0.00   94.08    0.73    0.90    0.02    0.00    0.00    0.00    0.00    0.00     0.00    0.00    0.00    0.00
   21    2.73    0.04    0.01    0.00    0.00    0.00   96.10    0.65    0.77    0.05    0.00    0.00    0.00    0.00    0.00     0.00    0.00    0.00    0.00
   22    0.00    0.00    0.01    0.00    0.00    0.00   95.43    0.67    0.87    0.01    0.00    0.00    0.00    0.00    0.00     0.00    0.00    0.00    0.00
   23    2.11    0.00    0.01    0.00    0.00    0.00   94.65    0.78    1.87    0.01    0.00    0.00    0.00    0.00    0.00     0.00    0.00    0.00    0.00
   24    0.00    0.03    0.01    0.00    0.00    0.00   94.79    1.92    2.24    0.04    0.00    0.00    0.00    0.00    0.00     0.00    0.00    0.00    0.00
   25    0.00    0.00    0.01    0.00    0.00    0.00   93.09    1.70    2.12    0.01    0.00    0.00    0.00    0.00    0.00     0.00    0.00    0.00    0.00
   26    0.00    0.00    0.01    0.00    0.00    0.00   91.50    1.59    2.50    0.01    0.00    0.00    0.00    0.00    0.00     0.00    0.00    0.00    0.00
   27    0.00    0.00    0.01    0.00    0.00    0.00   89.61    1.89    3.71    0.01    0.00    0.00    0.00    0.00    0.00     0.00    0.00    0.00    0.00
   28    0.00    0.00    0.01    0.00    0.00    0.00   88.37    1.24    2.81    0.01    0.00    0.00    0.00    0.00    0.00     0.00    0.00    0.00    0.00
   29    0.00    0.00    0.01    0.00    0.00    0.00   87.79    0.58    1.45    0.01    0.00    0.00    0.00    0.00    0.00     0.00    0.00    0.00    0.00
   30   13.26    0.84    0.02    0.00    0.00    0.00   99.62    0.51    0.59    0.85    0.01    0.01    0.00    0.00    0.00     0.02    0.00    0.00    0.00
   31    0.00    0.00    0.01    0.00    0.00    0.00   97.99    1.64    1.90    0.01    0.00    0.00    0.00    0.00    0.00     0.00    0.00    0.00    0.00
    1   55.74    3.34    0.40    0.00    0.00    0.00   97.99   34.11   62.48    3.74    0.03    0.04    0.01    0.00    0.00     0.07    0.00    0.01    0.00
   32    0.00    0.00    0.01    0.00    0.00    0.00   96.56    1.42    1.89    0.01    0.00    0.00    0.00    0.00    0.00     0.00    0.00    0.00    0.00
   33    0.00    0.00    0.01    0.00    0.00    0.00   95.32    1.24    1.84    0.01    0.00    0.00    0.00    0.00    0.00     0.00    0.00    0.00    0.00
   34    1.06    0.00    0.01    0.00    0.00    0.00   95.44    0.94    1.15    0.01    0.00    0.00    0.00    0.00    0.00     0.00    0.00    0.00    0.00
   35    8.06    0.40    0.01    0.00    0.00    0.00  101.06    1.98    2.28    0.41    0.01    0.00    0.00    0.00    0.00     0.01    0.00    0.00    0.00
   36    0.00    0.00    0.01    0.00    0.00    0.00   98.39    2.67    3.46    0.01    0.00    0.00    0.00    0.00    0.00     0.00    0.00    0.00    0.00
   37    0.00    0.00    0.01    0.00    0.00    0.00   96.12    2.27    3.56    0.01    0.00    0.00    0.00    0.00    0.00     0.00    0.00    0.00    0.00
   38    0.00    0.00    0.01    0.00    0.00    0.00   94.69    1.43    2.65    0.01    0.00    0.00    0.00    0.00    0.00     0.00    0.00    0.00    0.00
   39    0.00    0.00    0.01    0.00    0.00    0.00   93.42    1.27    2.60    0.01    0.00    0.00    0.00    0.00    0.00     0.00    0.00    0.00    0.00
   40    0.01    0.00    0.01    0.00    0.00    0.00   92.44    1.00    2.21    0.01    0.00    0.00    0.00    0.00    0.00     0.00    0.00    0.00    0.00
   41    0.39    0.00    0.01    0.00    0.00    0.00   91.11    1.72    3.52    0.01    0.00    0.00    0.00    0.00    0.00     0.00    0.00    0.00    0.00
   42    0.00    0.00    0.01    0.00    0.00    0.00   89.28    1.83    4.39    0.01    0.00    0.00    0.00    0.00    0.00     0.00    0.00    0.00    0.00
   43    0.00    0.00    0.01    0.00    0.00    0.00   88.10    1.18    3.21    0.01    0.00    0.00    0.00    0.00    0.00     0.00    0.00    0.00    0.00
   44    0.00    0.00    0.01    0.00    0.00    0.00   87.34    0.76    2.22    0.01    0.00    0.00    0.00    0.00    0.00     0.00    0.00    0.00    0.00
   45    1.13    0.00    0.01    0.00    0.00    0.00   87.76    0.71    1.31    0.01    0.00    0.00    0.00    0.00    0.00     0.00    0.00    0.00    0.00
   46    1.60    0.01    0.01    0.00    0.00    0.00   88.27    1.08    1.39    0.02    0.00    0.00    0.00    0.00    0.00     0.00    0.00    0.00    0.00
   47    0.00    0.00    0.01    0.00    0.00    0.00   86.71    1.56    3.12    0.01    0.00    0.00    0.00    0.00    0.00     0.00    0.00    0.00    0.00
   48    2.38    0.04    0.01    0.00    0.00    0.00   86.38    2.67    4.17    0.04    0.00    0.00    0.00    0.00    0.00     0.00    0.00    0.00    0.00
   49    0.00    0.00    0.01    0.00    0.00    0.00   84.86    1.51    4.03    0.01    0.00    0.00    0.00    0.00    0.00     0.00    0.00    0.00    0.00
   50    0.00    0.00    0.01    0.00    0.00    0.00   84.16    0.70    2.13    0.01    0.00    0.00    0.00    0.00    0.00     0.00    0.00    0.00    0.00
   51    0.00    0.00    0.01    0.00    0.00    0.00   83.34    0.82    2.73    0.01    0.00    0.00    0.00    0.00    0.00     0.00    0.00    0.00    0.00
   52    2.74    0.04    0.01    0.00    0.00    0.00   85.23    0.81    1.08    0.05    0.00    0.00    0.00    0.00    0.00     0.00    0.00    0.00    0.00
   53    1.37    0.00    0.01    0.00    0.00    0.00   85.22    1.36    1.79    0.01    0.00    0.00    0.00    0.00    0.00     0.00    0.00    0.00    0.00
   54    0.00    0.00    0.01    0.00    0.00    0.00   83.45    1.78    4.10    0.01    0.00    0.00    0.00    0.00    0.00     0.00    0.00    0.00    0.00
   55   11.27    0.63    0.01    0.00    0.00    0.00   92.46    1.58    1.79    0.64    0.01    0.01    0.00    0.00    0.00     0.02    0.00    0.00    0.00
   56    7.92    0.39    0.01    0.00    0.00    0.00   98.66    1.28    1.43    0.40    0.00    0.00    0.00    0.00    0.00     0.01    0.00    0.00    0.00
   57    0.00    0.00    0.01    0.00    0.00    0.00   96.87    1.79    2.18    0.01    0.00    0.00    0.00    0.00    0.00     0.00    0.00    0.00    0.00
   58    0.00    0.00    0.01    0.00    0.00    0.00   95.25    1.62    2.27    0.01    0.00    0.00    0.00    0.00    0.00     0.00    0.00    0.00    0.00
   59   18.77    1.33    0.02    0.00    0.00    0.00  111.72    0.80    0.90    1.35    0.05    0.01    0.00    0.00    0.00     0.06    0.00    0.01    0.00
    2   56.71    2.83    0.29    0.00    0.00    0.00  111.72   39.79   69.40    3.12    0.07    0.02    0.00    0.00    0.00     0.11    0.00    0.01    0.00
   60    1.74    0.01    0.02    0.00    0.00    0.00  110.82    2.62    2.93    0.03    0.00    0.00    0.00    0.00    0.00     0.00    0.00    0.00    0.00
   61    0.00    0.00    0.02    0.00    0.00    0.00  107.91    2.91    3.81    0.02    0.00    0.00    0.00    0.00    0.00     0.00    0.00    0.00    0.00
   62    0.00    0.00    0.01    0.00    0.00    0.00  105.44    2.47    3.97    0.01    0.00    0.00    0.00    0.00    0.00     0.00    0.00    0.00    0.00
   63    0.00    0.00    0.01    0.00    0.00    0.00  103.74    1.70    3.21    0.01    0.00    0.00    0.00    0.00    0.00     0.00    0.00    0.00    0.00
   64    0.00    0.00    0.01    0.00    0.00    0.00  101.45    2.29    4.80    0.01    0.00    0.00    0.00    0.00    0.00     0.00    0.00    0.00    0.00
   65    0.31    0.00    0.01    0.00    0.00    0.00   99.92    1.83    3.82    0.01    0.00    0.00    0.00    0.00    0.00     0.00    0.00    0.00    0.00
   66    0.00    0.00    0.01    0.00    0.00    0.00   97.93    2.00    4.96    0.01    0.00    0.00    0.00    0.00    0.00     0.00    0.00    0.00    0.00
   67   13.89    0.91    0.02    0.00    0.00    0.00  106.58    4.25    4.79    0.92    0.03    0.01    0.00    0.00    0.00     0.04    0.00    0.01    0.00
   68   14.56    0.97    0.02    0.00    0.00    0.00  117.09    2.96    3.28    0.99    0.00    0.00    0.00    0.00    0.00     0.05    0.00    0.01    0.00
   69    0.00    0.00    0.02    0.00    0.00    0.00  114.59    2.49    3.28    0.02    0.00    0.00    0.00    0.00    0.00     0.00    0.00    0.00    0.00
   70    0.00    0.00    0.02    0.00    0.00    0.00  111.99    2.60    4.07    0.02    0.00    0.00    0.00    0.00    0.00     0.00    0.00    0.00    0.00
   71    0.60    0.00    0.02    0.00    0.00    0.00  109.77    2.81    4.46    0.02    0.00    0.00    0.00    0.00    0.00     0.00    0.00    0.00    0.00
   72    0.00    0.00    0.02    0.00    0.00    0.00  107.85    1.93    3.79    0.02    0.00    0.00    0.00    0.00    0.00     0.00    0.00    0.00    0.00
   73    9.07    0.47    0.02    0.00    0.00    0.00  114.14    2.26    2.50    0.49    0.02    0.01    0.00    0.00    0.00     0.02    0.00    0.00    0.00
   74    0.00    0.00    0.02    0.00    0.00    0.00  111.93    2.21    3.11    0.02    0.00    0.00    0.00    0.00    0.00     0.00    0.00    0.00    0.00
   75    0.00    0.00    0.01    0.00    0.00    0.00  110.06    1.87    3.03    0.01    0.00    0.00    0.00    0.00    0.00     0.00    0.00    0.00    0.00
   76   29.65    2.33    0.03    0.00    0.00    0.00  136.22    0.90    0.99    2.36    0.08    0.01    0.00    0.00    0.00     0.11    0.00    0.01    0.00
   77    1.61    0.01    0.03    0.00    0.00    0.00  136.39    1.42    1.56    0.04    0.00    0.00    0.00    0.00    0.00     0.00    0.00    0.00    0.00
   78    0.00    0.00    0.02    0.00    0.00    0.00  133.67    2.71    3.10    0.02    0.00    0.00    0.00    0.00    0.00     0.00    0.00    0.00    0.00
   79    0.00    0.00    0.02    0.00    0.00    0.00  130.53    3.14    4.15    0.02    0.00    0.00    0.00    0.00    0.00     0.00    0.00    0.00    0.00
   80    0.00    0.00    0.02    0.00    0.00    0.00  127.94    2.59    4.16    0.02    0.00    0.00    0.00    0.00    0.00     0.00    0.00    0.00    0.00
   81    0.00    0.00    0.02    0.00    0.00    0.00  125.48    2.46    4.64    0.02    0.00    0.00    0.00    0.00    0.00     0.00    0.00    0.00    0.00
   82    7.29    0.29    0.02    0.00    0.00    0.00  130.52    1.92    2.10    0.31    0.01    0.00    0.00    0.00    0.00     0.01    0.00    0.00    0.00
   83    5.19    0.14    0.02    0.00    0.00    0.00  132.79    2.75    3.01    0.16    0.00    0.00    0.00    0.00    0.00     0.00    0.00    0.00    0.00
   84    0.00    0.00    0.02    0.00    0.00    0.00  129.85    2.93    4.02    0.02    0.00    0.00    0.00    0.00    0.00     0.00    0.00    0.00    0.00
   85    0.00    0.00    0.02    0.00    0.00    0.00  127.95    1.91    3.12    0.02    0.00    0.00    0.00    0.00    0.00     0.00    0.00    0.00    0.00
   86    0.00    0.00    0.02    0.00    0.00    0.00  126.68    1.26    2.33    0.02    0.00    0.00    0.00    0.00    0.00     0.00    0.00    0.00    0.00
   87    4.89    0.17    0.02    0.00    0.00    0.00  129.29    2.09    2.28    0.19    0.00    0.00    0.00    0.00    0.00     0.01    0.00    0.00    0.00
   88   10.55    0.46    0.02    0.00    0.00    0.00  134.27    5.04    5.54    0.48    0.01    0.00    0.00    0.00    0.00     0.02    0.00    0.00    0.00
   89    0.00    0.00    0.02    0.00    0.00    0.00  130.10    4.16    6.20    0.02    0.00    0.00    0.00    0.00    0.00     0.00    0.00    0.00    0.00
   90    0.00    0.00    0.02    0.00    0.00    0.00  128.12    1.98    3.72    0.02    0.00    0.00    0.00    0.00    0.00     0.00    0.00    0.00    0.00
    3   99.34    5.76    0.58    0.00    0.00    0.00  128.12   76.49  110.73    6.34    0.15    0.04    0.01    0.00    0.00     0.26    0.00    0.04    0.00
   91    2.91    0.05    0.02    0.00    0.00    0.00  128.85    2.12    2.37    0.06    0.00    0.00    0.00    0.00    0.00     0.00    0.00    0.00    0.00
   92    2.05    0.02    0.02    0.00    0.00    0.00  128.02    2.85    3.37    0.04    0.00    0.00    0.00    0.00    0.00     0.00    0.00    0.00    0.00
   93   10.83    0.73    0.02    0.00    0.00    0.00  131.15    6.91    7.74    0.75    0.04    0.00    0.00    0.00    0.00     0.05    0.00    0.01    0.00
   94    0.00    0.00    0.02    0.00    0.00    0.00  126.94    4.21    7.10    0.02    0.00    0.00    0.00    0.00    0.00     0.00    0.00    0.00    0.00
   95    0.00    0.00    0.02    0.00    0.00    0.00  124.29    2.65    5.62    0.02    0.00    0.00    0.00    0.00    0.00     0.00    0.00    0.00    0.00
   96    0.00    0.00    0.02    0.00    0.00    0.00  121.42    2.87    6.88    0.02    0.00    0.00    0.00    0.00    0.00     0.00    0.00    0.00    0.00
   97    0.00    0.00    0.02    0.00    0.00    0.00  119.10    2.31    6.20    0.02    0.00    0.00    0.00    0.00    0.00     0.00    0.00    0.00    0.00
   98    0.80    0.00    0.02    0.00    0.00    0.00  118.33    1.58    3.27    0.02    0.00    0.00    0.00    0.00    0.00     0.00    0.00    0.00    0.00
   99   13.64    0.85    0.02    0.00    0.00    0.00  125.73    5.32    6.40    0.87    0.04    0.01    0.00    0.00    0.37     0.05    0.00    0.01    0.00
  100    0.00    0.00    0.02    0.00    0.00    0.00  122.52    3.21    4.94    0.02    0.00    0.00    0.00    0.00    0.48     0.00    0.00    0.00    0.00
  101    0.00    0.00    0.02    0.00    0.00    0.00  119.74    2.79    5.08    0.02    0.00    0.00    0.00    0.00    0.94     0.00    0.00    0.00    0.00
[...]
  348    0.00    0.00    0.02    0.00    0.00    0.00   98.43    0.96    1.49    0.02    0.00    0.00    0.00    0.00    0.00     0.00    0.00    0.00    0.00
  349    1.03    0.00    0.02    0.00    0.00    0.00   98.15    0.63    0.60    0.02    0.00    0.00    0.00    0.00    0.00     0.00    0.00    0.00    0.00
  350   28.70    2.34    0.04    0.00    0.00    0.00  123.95    0.99    0.43    2.38    0.04    0.01    0.00    0.00    0.00     0.06    0.00    0.01    0.00
  351    0.00    0.00    0.03    0.00    0.00    0.00  122.73    1.21    1.32    0.03    0.00    0.00    0.00    0.00    0.00     0.00    0.00    0.00    0.00
  352    6.94    0.29    0.03    0.00    0.00    0.00  127.34    1.99    1.53    0.32    0.00    0.00    0.00    0.00    0.00     0.01    0.00    0.00    0.00
  353    0.90    0.00    0.03    0.00    0.00    0.00  126.74    1.50    1.46    0.03    0.00    0.00    0.00    0.00    0.00     0.00    0.00    0.00    0.00
  354    0.00    0.00    0.03    0.00    0.00    0.00  124.76    1.98    2.39    0.03    0.00    0.00    0.00    0.00    0.00     0.00    0.00    0.00    0.00
  355    0.00    0.00    0.02    0.00    0.00    0.00  123.34    1.42    1.98    0.02    0.00    0.00    0.00    0.00    0.00     0.00    0.00    0.00    0.00
  356    0.00    0.00    0.02    0.00    0.00    0.00  122.11    1.23    1.85    0.02    0.00    0.00    0.00    0.00    0.00     0.00    0.00    0.00    0.00
  357    0.00    0.00    0.02    0.00    0.00    0.00  121.06    1.05    1.67    0.02    0.00    0.00    0.00    0.00    0.00     0.00    0.00    0.00    0.00
  358    0.00    0.00    0.02    0.00    0.00    0.00  119.63    1.43    2.43    0.02    0.00    0.00    0.00    0.00    0.00     0.00    0.00    0.00    0.00
  359    1.68    0.01    0.02    0.00    0.00    0.00  120.13    1.17    1.28    0.03    0.00    0.00    0.00    0.00    0.00     0.00    0.00    0.00    0.00
  360    3.61    0.09    0.02    0.00    0.00    0.00  121.32    2.32    2.43    0.11    0.00    0.00    0.00    0.00    0.00     0.00    0.00    0.00    0.00
  361    0.00    0.00    0.02    0.00    0.00    0.00  120.30    1.03    1.58    0.02    0.00    0.00    0.00    0.00    0.00     0.00    0.00    0.00    0.00
  362    0.00    0.00    0.02    0.00    0.00    0.00  119.20    1.09    1.82    0.02    0.00    0.00    0.00    0.00    0.00     0.00    0.00    0.00    0.00
  363   13.52    0.79    0.02    0.00    0.00    0.00  130.17    1.67    1.67    0.82    0.01    0.01    0.00    0.00    0.01     0.02    0.00    0.00    0.00
  364    0.00    0.00    0.02    0.00    0.00    0.00  128.48    1.69    2.00    0.02    0.00    0.00    0.00    0.00    0.02     0.00    0.00    0.00    0.00
  365    0.00    0.00    0.02    0.00    0.00    0.00  127.01    1.47    1.94    0.02    0.00    0.00    0.00    0.00    0.02     0.00    0.00    0.00    0.00
   12   98.84    6.09    0.75    0.00    0.00    0.00  127.01   44.57   51.27    6.84    0.07    0.04    0.01    0.00    0.06     0.15    0.00    0.02    0.00

 2005  849.00   48.17    4.25    0.00    0.00    0.00  127.01  749.45 1461.70   52.42    0.59    2.31    0.08    0.00  175.44     1.01    0.02    0.15    0.00
1
    SWAT Dec 6 2013    VER 2012/Rev 613                                             

    General Input/Output section (file.cio):                                        
    2/7/2013 12:00:00 AM ARCGIS-SWAT interface AV                                   
                                                                                    
    FINAL VALUES

1
    SWAT Dec 6 2013    VER 2012/Rev 613                                             

    General Input/Output section (file.cio):                                        
    2/7/2013 12:00:00 AM ARCGIS-SWAT interface AV                                   
                                                                                    
                                            Average Plant Values (kg/ha)

  HRU       1 SUB   1 BERM  Yld = 13120.7 BIOM =  18774.9
  HRU       2 SUB   1 BERM  Yld = 13031.9 BIOM =  18645.9
  HRU       3 SUB   1 BERM  Yld = 13967.4 BIOM =  19988.1
  HRU       4 SUB   1 BERM  Yld = 13959.7 BIOM =  19976.9
  HRU       5 SUB   1 BERM  Yld = 14152.0 BIOM =  20251.6
  HRU       6 SUB   1 BERM  Yld = 14129.9 BIOM =  20219.2
  HRU       7 SUB   1 BERM  Yld = 11808.5 BIOM =  16860.4
  HRU       8 SUB   1 BERM  Yld = 11913.2 BIOM =  17012.7
  HRU       9 SUB   1 BERM  Yld = 11882.3 BIOM =  16967.8
  HRU      10 SUB   1 BERM  Yld = 12380.1 BIOM =  17682.3
  HRU      11 SUB   1 BERM  Yld = 12395.4 BIOM =  17704.4
  HRU      12 SUB   1 BERM  Yld = 12382.1 BIOM =  17689.8
  HRU      13 SUB   1 BERM  Yld = 12337.5 BIOM =  17625.5
  HRU      14 SUB   2 BERM  Yld = 13904.0 BIOM =  19875.4
  HRU      15 SUB   2 BERM  Yld = 13922.4 BIOM =  19902.6
  HRU      16 SUB   2 BERM  Yld = 12247.2 BIOM =  17476.2
  HRU      17 SUB   2 BERM  Yld = 12235.8 BIOM =  17459.7
  HRU      18 SUB   2 BERM  Yld = 12372.4 BIOM =  17656.6
  HRU      19 SUB   2 BERM  Yld = 12326.5 BIOM =  17590.5
  HRU      20 SUB   2 FRSD  Yld =  3477.2 BIOM =  16072.0
  HRU      21 SUB   2 FRSD  Yld =  3441.0 BIOM =  15875.5
  HRU      22 SUB   3 BERM  Yld = 15341.3 BIOM =  21898.8
  HRU      23 SUB   3 BERM  Yld = 15356.1 BIOM =  21920.2
  HRU      24 SUB   3 BERM  Yld = 13776.5 BIOM =  19634.5
  HRU      25 SUB   3 BERM  Yld = 13844.2 BIOM =  19731.6
  HRU      26 SUB   3 FRSD  Yld =  3851.1 BIOM =  18180.7
  HRU      27 SUB   3 FRSD  Yld =  3912.0 BIOM =  18397.9
  HRU      28 SUB   3 FRSD  Yld =  3918.1 BIOM =  18419.1
  HRU      29 SUB   3 FRSE  Yld =  4368.6 BIOM =  21137.7
  HRU      30 SUB   3 FRSE  Yld =  4356.2 BIOM =  21081.9
  HRU      31 SUB   4 BERM  Yld = 15079.1 BIOM =  21484.5
  HRU      32 SUB   4 BERM  Yld = 15099.1 BIOM =  21513.2
  HRU      33 SUB   4 FRSD  Yld =  3804.8 BIOM =  18022.2
  HRU      34 SUB   4 FRSD  Yld =  3862.3 BIOM =  18225.6
  HRU      35 SUB   4 FRSD  Yld =  3870.8 BIOM =  18255.1
  HRU      36 SUB   4 FRSE  Yld =  4360.0 BIOM =  21108.0
  HRU      37 SUB   4 FRSE  Yld =  4345.8 BIOM =  21045.3
  HRU      38 SUB   4 HAY   Yld = 15515.7 BIOM =  24967.1
  HRU      39 SUB   4 HAY   Yld = 15574.4 BIOM =  25028.8

    HRU STATISTICS

                AVE ANNUAL VALUES

   HRU  SUB  SOIL       AREAkm2    CN     AWCmm   USLE_LS  IRRmm  AUTONkh AUTOPkh  MIXEF PRECmm SURQGENmm   GWQmm    ETmm   SEDth  NO3kgh  ORGNkgh BIOMth   YLDth  SURQmm
      1   1   MAYODAN    .197E+01   63.29  165.08    0.56    0.00  158.06    0.00    0.20  916.47   54.73    4.98  817.90    0.22    2.11    0.47   18.77   13.12   54.73
      2   1   MAYODAN    .154E+01   63.29  165.08    1.15    0.00  157.73    0.00    0.20  916.47   54.60   14.07  810.23    0.44    2.30    0.87   18.65   13.03   54.60
      3   1   HERNDON    .300E+01   63.29  287.02    0.58    0.00  173.65    0.00    0.20  916.47   52.88    0.45  822.61    0.42    2.26    0.53   19.99   13.97   52.88
      4   1   HERNDON    .419E+01   63.29  287.02    1.25    0.00  173.64    0.00    0.20  916.47   52.89    1.35  821.76    0.97    2.28    1.00   19.98   13.96   52.89
      5   1   HIWASSEE   .325E+01   63.29  305.98    0.58    0.00  178.25    0.00    0.20  916.47   52.55    1.52  820.94    0.32    2.35    0.65   20.25   14.15   52.55
      6   1   HIWASSEE   .499E+01   63.29  305.98    1.28    0.00  178.23    0.00    0.20  916.47   52.56    4.58  818.07    0.75    2.41    1.28   20.22   14.13   52.56
      7   1   MAYODAN    .452E+00   73.82  165.08    1.15    0.00  152.34    0.00    0.20  916.47  164.82   11.03  713.25    1.15    5.00    2.49   16.86   11.81  164.82
      8   1   MAYODAN    .396E+00   73.82  165.08    0.18    0.00  152.87    0.00    0.20  916.47  164.94    1.01  722.04    0.20    4.82    0.94   17.01   11.91  164.94
      9   1   MAYODAN    .869E+00   73.82  165.08    0.56    0.00  152.78    0.00    0.20  916.47  164.90    3.90  719.51    0.60    4.80    1.51   16.97   11.88  164.90
     10   1   HERNDON    .163E+01   73.82  287.02    1.25    0.00  165.02    0.00    0.20  916.47  161.76    1.07  721.50    2.60    5.04    2.44   17.68   12.38  161.76
     11   1   HERNDON    .126E+01   73.82  287.02    0.58    0.00  165.05    0.00    0.20  916.47  161.75    0.36  722.20    1.17    5.04    1.55   17.70   12.40  161.75
     12   1   HIWASSEE   .877E+00   73.82  305.98    0.56    0.00  168.92    0.00    0.20  916.47  161.03    1.18  722.32    0.82    5.17    1.84   17.69   12.38  161.03
     13   1   HIWASSEE   .975E+00   73.82  305.98    1.20    0.00  168.61    0.00    0.20  916.47  161.08    3.51  720.09    1.78    5.21    3.02   17.63   12.34  161.08
     14   2   HIWASSEE   .101E+02   63.29  305.98    1.25    0.00  178.18    0.00    0.20  927.67   53.73    4.61  822.82    0.89    2.44    1.48   19.88   13.90   53.73
     15   2   HIWASSEE   .690E+01   63.29  305.98    0.58    0.00  178.18    0.00    0.20  927.67   53.73    1.55  825.68    0.39    2.37    0.76   19.90   13.92   53.73
     16   2   HERNDON    .407E+00   73.82  287.02    0.58    0.00  165.09    0.00    0.20  927.67  165.20    0.36  726.47    1.18    5.23    1.86   17.48   12.25  165.20
     17   2   HERNDON    .564E+00   73.82  287.02    1.28    0.00  165.05    0.00    0.20  927.67  165.21    1.10  725.77    2.71    5.20    2.78   17.46   12.24  165.21
     18   2   HIWASSEE   .283E+01   73.82  305.98    0.58    0.00  168.93    0.00    0.20  927.67  164.37    1.24  725.67    1.09    5.12    2.08   17.66   12.37  164.37
     19   2   HIWASSEE   .341E+01   73.82  305.98    1.25    0.00  168.60    0.00    0.20  927.67  164.42    3.68  723.36    2.41    5.16    3.51   17.59   12.33  164.42
     20   2   HIWASSEE   .328E+01   66.00  305.98    1.33    0.00    0.00    0.00    0.20  927.67    0.07    4.90  902.24    0.00    0.03    0.00   17.74    0.00    0.07
     21   2   HIWASSEE   .270E+01   66.00  305.98    1.96    0.00    0.00    0.00    0.20  927.67    0.07   22.03  885.55    0.00    0.14    0.00   17.56    0.00    0.07
     22   3   HIWASSEE   .231E+01   63.29  305.98    1.15    0.00  191.56    0.00    0.20 1005.37   56.69    5.26  994.62    0.63    1.97    1.15   21.90   15.34   56.69
     23   3   HIWASSEE   .286E+01   63.29  305.98    0.58    0.00  191.46    0.00    0.20 1005.37   56.75    1.94  996.95    0.32    1.90    0.67   21.92   15.36   56.75
     24   3   HIWASSEE   .707E+00   73.82  305.98    1.18    0.00  190.16    0.00    0.20 1005.37  167.58    4.20  879.66    1.44    4.94    2.68   19.63   13.78  167.58
     25   3   HIWASSEE   .101E+01   73.82  305.98    0.58    0.00  190.27    0.00    0.20 1005.37  167.59    1.52  882.69    0.74    4.84    1.73   19.73   13.84  167.59
     26   3   HIWASSEE   .123E+01   66.00  305.98    2.05    0.00    0.00    0.00    0.20 1005.37    3.33   27.09 1017.45    0.00    0.24    0.00   19.65    0.00    3.33
     27   3   HIWASSEE   .161E+01   66.00  305.98    1.31    0.00    0.00    0.00    0.20 1005.37    4.57    6.04 1030.93    0.00    0.08    0.00   19.96    0.00    4.57
     28   3   HIWASSEE   .123E+01   66.00  305.98    0.58    0.00    0.00    0.00    0.20 1005.37    4.91    2.04 1033.37    0.00    0.05    0.00   19.99    0.00    4.91
     29   3   HIWASSEE   .161E+01   55.00  305.98    0.56    0.00    0.00    0.00    0.20 1005.37    0.28    1.85 1030.21    0.00    0.02    0.00   22.22    0.00    0.28
     30   3   HIWASSEE   .128E+01   55.00  305.98    1.15    0.00    0.00    0.00    0.20 1005.37    0.17    5.18 1028.16    0.00    0.04    0.00   22.15    0.00    0.17
     31   4   HIWASSEE   .294E+01   63.29  305.98    1.25    0.00  191.79    0.00    0.20 1001.87   56.35    5.56  993.50    0.69    2.25    1.24   21.48   15.08   56.35
     32   4   HIWASSEE   .241E+01   63.29  305.98    0.58    0.00  191.67    0.00    0.20 1001.87   56.42    1.94  996.05    0.31    2.17    0.65   21.51   15.10   56.42
     33   4   HIWASSEE   .282E+01   66.00  305.98    1.89    0.00    0.00    0.00    0.20 1001.87    3.37   25.73 1017.31    0.00    0.23    0.00   19.41    0.00    3.37
     34   4   HIWASSEE   .427E+01   66.00  305.98    1.33    0.00    0.00    0.00    0.20 1001.87    4.57    6.11 1030.03    0.00    0.08    0.01   19.71    0.00    4.57
     35   4   HIWASSEE   .210E+01   66.00  305.98    0.60    0.00    0.00    0.00    0.20 1001.87    4.91    2.10 1032.58    0.00    0.05    0.00   19.75    0.00    4.91
     36   4   HIWASSEE   .234E+01   55.00  305.98    0.60    0.00    0.00    0.00    0.20 1001.87    0.28    1.95 1028.94    0.00    0.02    0.00   22.17    0.00    0.28
     37   4   HIWASSEE   .439E+01   55.00  305.98    1.28    0.00    0.00    0.00    0.20 1001.87    0.15    5.56 1026.70    0.00    0.04    0.00   22.10    0.00    0.16
     38   4   HIWASSEE   .178E+01   59.00  305.98    1.20    0.00  313.50    0.00    0.20 1001.87    0.68    5.70 1052.56    0.00    0.30    0.00   15.30   14.27    0.68
     39   4   HIWASSEE   .172E+01   59.00  305.98    0.58    0.00  313.41    0.00    0.20 1001.87    0.68    2.05 1055.05    0.00    0.12    0.00   15.36   14.33    0.68



                AVE MONTHLY BASIN VALUES
                   SNOW                      WATER               SED
  MON     RAIN     FALL   SURF Q    LAT Q    YIELD       ET    YIELD      PET
          (MM)     (MM)     (MM)     (MM)     (MM)     (MM)   (T/HA)     (MM)
    1    61.10    17.33     3.47     0.51     3.98    35.19     0.04    58.84
    2    61.13     1.72     3.84     0.40     4.24    41.18     0.09    64.29
    3    88.68     0.00     5.19     0.57     5.76    71.67     0.16   110.26
    4    44.76     0.00     2.37     0.41     2.78    78.02     0.13   151.79
    5    62.20     0.00     3.23     0.29     3.52   103.63     0.03   168.92
    6   156.40     0.00    11.02     0.47    11.49   148.02     0.01   166.44
    7   136.26     0.00     6.33     0.47     6.79   149.12     0.01   184.32
    8    92.28     0.00     4.99     0.49     5.48   117.68     0.01   160.46
    9    41.60     0.00     1.92     0.25     2.18    44.67     0.00   141.02
   10    75.13     0.00     3.70     0.38     4.07    43.89     0.01    85.26
   11    70.78     0.00     4.51     0.32     4.83    33.43     0.04    72.23
   12    81.36    15.24     4.48     0.55     5.03    39.76     0.04    55.31

     AVE ANNUAL BASIN STRESS DAYS
               WATER STRESS DAYS =    34.59
               TEMPERATURE STRESS DAYS =    19.24
               NITROGEN STRESS DAYS =    21.06
               PHOSPHORUS STRESS DAYS =     0.00
               AERATION STRESS DAYS =     0.00
1
    SWAT Dec 6 2013    VER 2012/Rev 613                                             

    General Input/Output section (file.cio):                                        
    2/7/2013 12:00:00 AM ARCGIS-SWAT interface AV                                   
                                                                                    
         AVE ANNUAL BASIN VALUES

              PRECIP =    972.8 MM
              SNOW FALL =   34.31 MM
              SNOW MELT =    34.19 MM
              SUBLIMATION =     0.12 MM
              SURFACE RUNOFF Q =    55.11 MM
              LATERAL SOIL Q =    5.14 MM
              TILE Q =     0.00 MM
              GROUNDWATER (SHAL AQ) Q =     0.00 MM
              GROUNDWATER (DEEP AQ) Q =     0.00 MM
              REVAP (SHAL AQ => SOIL/PLANTS) =    4.01 MM
              DEEP AQ RECHARGE =     3.99 MM
              TOTAL AQ RECHARGE =    8.10 MM
              TOTAL WATER YLD =    60.25 MM
              PERCOLATION OUT OF SOIL =    8.10 MM
              ET =    907.0 MM
              PET =   1420.3MM
              TRANSMISSION LOSSES =     0.00 MM
              SEPTIC INFLOW =       0.00 MM
              TOTAL SEDIMENT LOADING =     0.567 T/HA
              TILE FROM IMPOUNDED WATER =     0.000 (MM)
              EVAPORATION FROM IMPOUNDED WATER =     0.000 (MM)
              SEEPAGE INTO SOIL FROM IMPOUNDED WATER =    0.000 (MM)
              OVERFLOW FROM IMPOUNDED WATER =    0.000 (MM)
1
    SWAT Dec 6 2013    VER 2012/Rev 613                                             

    General Input/Output section (file.cio):                                        
    2/7/2013 12:00:00 AM ARCGIS-SWAT interface AV                                   
                                                                                    
              AVE ANNUAL BASIN VALUES


              NUTRIENTS
                   ORGANIC N =     0.905 (KG/HA)
                   ORGANIC P =     0.131 (KG/HA)
                   NO3 YIELD (SQ) =     1.955 (KG/HA)
                   NO3 YIELD (LAT) =    0.073 (KG/HA)
                   NO3 YIELD (TILE) =    0.000 (KG/HA)
                   SOLP YIELD (TILE) =    0.000(KG/HA)
                   SOLP YIELD (SURF INLET RISER) =    0.000 (KG/HA)
                   SOL P YIELD =    0.015 (KG/HA)
                   NO3 LEACHED =     1.281 (KG/HA)
                   P LEACHED =     0.006 (KG/HA)
                   N UPTAKE =   158.747 (KG/HA)
                   P UPTAKE =   39.107 (KG/HA)
                   NO3 YIELD (GWQ) =     0.000 (KG/HA)
                   ACTIVE TO SOLUTION P FLOW =       -28.594 (KG/HA)
                   ACTIVE TO STABLE P FLOW =       -24.480 (KG/HA)
                   N FERTILIZER APPLIED =   129.760 (KG/HA)
                   P FERTILIZER APPLIED =     0.000 (KG/HA)
                   N FIXATION =     0.000 (KG/HA)
                   DENITRIFICATION =     0.000 (KG/HA)
                   HUMUS MIN ON ACTIVE ORG N =     2.471 (KG/HA)
                   ACTIVE TO STABLE ORG N =     0.358 (KG/HA)
                   HUMUS MIN ON ACTIVE ORG P =    0.433 (KG/HA)
                   MIN FROM FRESH ORG N =   30.098 (KG/HA)
                   MIN FROM FRESH ORG P =   10.874 (KG/HA)
                   NO3 IN RAINFALL =     8.227 (KG/HA)
                   INITIAL NO3 IN SOIL =      50.157 (KG/HA)
                   FINAL NO3 IN SOIL =        17.892 (KG/HA)
                   INITIAL ORG N IN SOIL =    3572.592 (KG/HA)
                   FINAL ORG N IN SOIL =      3607.233 (KG/HA)
                   INITIAL MIN P IN SOIL =    3809.102 (KG/HA)
                   FINAL MIN P IN SOIL =      3720.835 (KG/HA)
                   INITIAL ORG P IN SOIL =     437.643 (KG/HA)
                   FINAL ORG P IN SOIL =     450.526 (KG/HA)
                   NO3 IN FERT =   129.760 (KG/HA)
                   AMMONIA IN FERT =     0.000 (KG/HA)
                   ORG N IN FERT =     0.000 (KG/HA)
                   MINERAL P IN FERT =     0.000 (KG/HA)
                   ORG P IN FERT =     0.000 (KG/HA)
                   N REMOVED IN YIELD =   121.836 (KG/HA)
                   P REMOVED IN YIELD =    26.865 (KG/HA)
                   AMMONIA VOLATILIZATION =     0.000 (KG/HA)
                   AMMONIA NITRIFICATION =      0.000 (KG/HA)
                   NO3 EVAP-LAYER 2 TO 1 =   15.317

                   DIE-GRO P Q =       0.0 (No/HA)
                   DIE-GRO LP Q =       0.0 (No/HA)
                   DIE-GRO P SED =      0.0 (No/HA)
                   DIE-GRO LP SED =      0.0 (No/HA)
                   BACT P RUNOFF =      0.0 (No/HA)
                   BACT LP RUNOFF =      0.0 (No/HA)
                   BACT P SEDIMENT =      0.0 (No/HA)
                   BACT LP SEDIMENT =      0.0 (No/HA)
                   BACT P INCORP =      0.0 (No/HA)
                   BACT LP INCORP =      0.0 (No/HA)

                   NITRATE SEPTIC =         0.00 (kg/ha)
                   AMMONIA SEPTIC =         0.00 (kg/ha)
                   ORG N SEPTIC =         0.00 (kg/ha)
                   FRESH ORGN SEPTIC =         0.00 (kg/ha)
                   ORG P SEPTIC =         0.00 (kg/ha)
                   FRESH ORGP SEPTIC =         0.00 (kg/ha)
                   SOL P SEPTIC =         0.00 (kg/ha)
                   BOD SEPTIC =         0.00 (kg/ha)
