1
    SWAT Dec 6 2013    VER 2012/Rev 613                                                                  0/ 0/   0      0: 0: 0

    General Input/Output section (file.cio):                                        
    2/7/2013 12:00:00 AM ARCGIS-SWAT interface AV                                   
                                                                                    


       SUB      GIS  MON   AREAkm2  PRECIPmm
BIGSUB   1        0    1.24954E+02 0.000E+00 0.140E-44
BIGSUB   2        0    1.29683E+02 0.000E+00 0.280E-44
BIGSUB   3        0    1.13608E+02 0.125E+02 0.420E-44
BIGSUB   4        0    1.24323E+02 0.125E+02 0.561E-44
BIGSUB   1        0    2.24954E+02 0.000E+00 0.140E-44
BIGSUB   2        0    2.29683E+02 0.000E+00 0.280E-44
BIGSUB   3        0    2.13608E+02 0.000E+00 0.420E-44
BIGSUB   4        0    2.24323E+02 0.000E+00 0.561E-44
BIGSUB   1        0    3.24954E+02 0.000E+00 0.140E-44
BIGSUB   2        0    3.29683E+02 0.000E+00 0.280E-44
BIGSUB   3        0    3.13608E+02 0.000E+00 0.420E-44
BIGSUB   4        0    3.24323E+02 0.000E+00 0.561E-44
BIGSUB   1        0    4.24954E+02 0.000E+00 0.140E-44
BIGSUB   2        0    4.29683E+02 0.000E+00 0.280E-44
BIGSUB   3        0    4.13608E+02 0.000E+00 0.420E-44
BIGSUB   4        0    4.24323E+02 0.000E+00 0.561E-44
BIGSUB   1        0    5.24954E+02 0.672E+01 0.140E-44
BIGSUB   2        0    5.29683E+02 0.672E+01 0.280E-44
BIGSUB   3        0    5.13608E+02 0.542E+01 0.420E-44
BIGSUB   4        0    5.24323E+02 0.542E+01 0.561E-44
BIGSUB   1        0    6.24954E+02 0.000E+00 0.140E-44
BIGSUB   2        0    6.29683E+02 0.000E+00 0.280E-44
BIGSUB   3        0    6.13608E+02 0.285E+01 0.420E-44
BIGSUB   4        0    6.24323E+02 0.285E+01 0.561E-44
BIGSUB   1        0    7.24954E+02 0.000E+00 0.140E-44
BIGSUB   2        0    7.29683E+02 0.000E+00 0.280E-44
BIGSUB   3        0    7.13608E+02 0.000E+00 0.420E-44
BIGSUB   4        0    7.24323E+02 0.000E+00 0.561E-44
BIGSUB   1        0    8.24954E+02 0.152E+02 0.140E-44
BIGSUB   2        0    8.29683E+02 0.152E+02 0.280E-44
BIGSUB   3        0    8.13608E+02 0.252E+01 0.420E-44
BIGSUB   4        0    8.24323E+02 0.252E+01 0.561E-44
BIGSUB   1        0    9.24954E+02 0.208E+01 0.140E-44
BIGSUB   2        0    9.29683E+02 0.208E+01 0.280E-44
BIGSUB   3        0    9.13608E+02 0.000E+00 0.420E-44
BIGSUB   4        0    9.24323E+02 0.000E+00 0.561E-44
BIGSUB   1        0   10.24954E+02 0.000E+00 0.140E-44
BIGSUB   2        0   10.29683E+02 0.000E+00 0.280E-44
BIGSUB   3        0   10.13608E+02 0.193E+02 0.420E-44
BIGSUB   4        0   10.24323E+02 0.193E+02 0.561E-44
BIGSUB   1        0   11.24954E+02 0.297E+01 0.140E-44
BIGSUB   2        0   11.29683E+02 0.297E+01 0.280E-44
BIGSUB   3        0   11.13608E+02 0.920E+01 0.420E-44
BIGSUB   4        0   11.24323E+02 0.920E+01 0.561E-44
BIGSUB   1        0   12.24954E+02 0.000E+00 0.140E-44
BIGSUB   2        0   12.29683E+02 0.000E+00 0.280E-44
BIGSUB   3        0   12.13608E+02 0.298E+00 0.420E-44
BIGSUB   4        0   12.24323E+02 0.298E+00 0.561E-44
BIGSUB   1        0   13.24954E+02 0.000E+00 0.140E-44
BIGSUB   2        0   13.29683E+02 0.000E+00 0.280E-44
BIGSUB   3        0   13.13608E+02 0.102E+02 0.420E-44
BIGSUB   4        0   13.24323E+02 0.102E+02 0.561E-44
BIGSUB   1        0   14.24954E+02 0.000E+00 0.140E-44
BIGSUB   2        0   14.29683E+02 0.000E+00 0.280E-44
BIGSUB   3        0   14.13608E+02 0.000E+00 0.420E-44
BIGSUB   4        0   14.24323E+02 0.000E+00 0.561E-44
BIGSUB   1        0   15.24954E+02 0.000E+00 0.140E-44
BIGSUB   2        0   15.29683E+02 0.000E+00 0.280E-44
BIGSUB   3        0   15.13608E+02 0.000E+00 0.420E-44
BIGSUB   4        0   15.24323E+02 0.000E+00 0.561E-44
BIGSUB   1        0   16.24954E+02 0.000E+00 0.140E-44
BIGSUB   2        0   16.29683E+02 0.000E+00 0.280E-44
BIGSUB   3        0   16.13608E+02 0.000E+00 0.420E-44
BIGSUB   4        0   16.24323E+02 0.000E+00 0.561E-44
BIGSUB   1        0   17.24954E+02 0.000E+00 0.140E-44
BIGSUB   2        0   17.29683E+02 0.000E+00 0.280E-44
BIGSUB   3        0   17.13608E+02 0.000E+00 0.420E-44
BIGSUB   4        0   17.24323E+02 0.000E+00 0.561E-44
BIGSUB   1        0   18.24954E+02 0.174E+02 0.140E-44
BIGSUB   2        0   18.29683E+02 0.174E+02 0.280E-44
BIGSUB   3        0   18.13608E+02 0.000E+00 0.420E-44
BIGSUB   4        0   18.24323E+02 0.000E+00 0.561E-44
BIGSUB   1        0   19.24954E+02 0.102E+00 0.140E-44
BIGSUB   2        0   19.29683E+02 0.102E+00 0.280E-44
BIGSUB   3        0   19.13608E+02 0.299E+01 0.420E-44
BIGSUB   4        0   19.24323E+02 0.299E+01 0.561E-44
BIGSUB   1        0   20.24954E+02 0.000E+00 0.140E-44
BIGSUB   2        0   20.29683E+02 0.000E+00 0.280E-44
BIGSUB   3        0   20.13608E+02 0.152E+02 0.420E-44
BIGSUB   4        0   20.24323E+02 0.152E+02 0.561E-44
BIGSUB   1        0   21.24954E+02 0.000E+00 0.140E-44
BIGSUB   2        0   21.29683E+02 0.000E+00 0.280E-44
BIGSUB   3        0   21.13608E+02 0.000E+00 0.420E-44
BIGSUB   4        0   21.24323E+02 0.000E+00 0.561E-44
BIGSUB   1        0   22.24954E+02 0.000E+00 0.140E-44
BIGSUB   2        0   22.29683E+02 0.000E+00 0.280E-44
BIGSUB   3        0   22.13608E+02 0.000E+00 0.420E-44
BIGSUB   4        0   22.24323E+02 0.000E+00 0.561E-44
BIGSUB   1        0   23.24954E+02 0.000E+00 0.140E-44
BIGSUB   2        0   23.29683E+02 0.000E+00 0.280E-44
BIGSUB   3        0   23.13608E+02 0.000E+00 0.420E-44
BIGSUB   4        0   23.24323E+02 0.000E+00 0.561E-44
BIGSUB   1        0   24.24954E+02 0.000E+00 0.140E-44
BIGSUB   2        0   24.29683E+02 0.000E+00 0.280E-44
BIGSUB   3        0   24.13608E+02 0.788E+01 0.420E-44
BIGSUB   4        0   24.24323E+02 0.788E+01 0.561E-44
BIGSUB   1        0   25.24954E+02 0.672E+01 0.140E-44
BIGSUB   2        0   25.29683E+02 0.672E+01 0.280E-44
BIGSUB   3        0   25.13608E+02 0.000E+00 0.420E-44
BIGSUB   4        0   25.24323E+02 0.000E+00 0.561E-44
BIGSUB   1        0   26.24954E+02 0.000E+00 0.140E-44
BIGSUB   2        0   26.29683E+02 0.000E+00 0.280E-44
BIGSUB   3        0   26.13608E+02 0.000E+00 0.420E-44
BIGSUB   4        0   26.24323E+02 0.000E+00 0.561E-44
BIGSUB   1        0   27.24954E+02 0.000E+00 0.140E-44
BIGSUB   2        0   27.29683E+02 0.000E+00 0.280E-44
BIGSUB   3        0   27.13608E+02 0.000E+00 0.420E-44
BIGSUB   4        0   27.24323E+02 0.000E+00 0.561E-44
BIGSUB   1        0   28.24954E+02 0.000E+00 0.140E-44
BIGSUB   2        0   28.29683E+02 0.000E+00 0.280E-44
BIGSUB   3        0   28.13608E+02 0.000E+00 0.420E-44
BIGSUB   4        0   28.24323E+02 0.000E+00 0.561E-44
BIGSUB   1        0   29.24954E+02 0.000E+00 0.140E-44
BIGSUB   2        0   29.29683E+02 0.000E+00 0.280E-44
BIGSUB   3        0   29.13608E+02 0.000E+00 0.420E-44
BIGSUB   4        0   29.24323E+02 0.000E+00 0.561E-44
BIGSUB   1        0   30.24954E+02 0.000E+00 0.140E-44
BIGSUB   2        0   30.29683E+02 0.000E+00 0.280E-44
BIGSUB   3        0   30.13608E+02 0.000E+00 0.420E-44
BIGSUB   4        0   30.24323E+02 0.000E+00 0.561E-44
BIGSUB   1        0   31.24954E+02 0.000E+00 0.140E-44
BIGSUB   2        0   31.29683E+02 0.000E+00 0.280E-44
BIGSUB   3        0   31.13608E+02 0.000E+00 0.420E-44
BIGSUB   4        0   31.24323E+02 0.000E+00 0.561E-44
BIGSUB   1        0   32.24954E+02 0.000E+00 0.140E-44
BIGSUB   2        0   32.29683E+02 0.000E+00 0.280E-44
BIGSUB   3        0   32.13608E+02 0.854E+01 0.420E-44
BIGSUB   4        0   32.24323E+02 0.854E+01 0.561E-44
BIGSUB   1        0   33.24954E+02 0.000E+00 0.140E-44
BIGSUB   2        0   33.29683E+02 0.000E+00 0.280E-44
BIGSUB   3        0   33.13608E+02 0.000E+00 0.420E-44
BIGSUB   4        0   33.24323E+02 0.000E+00 0.561E-44
BIGSUB   1        0   34.24954E+02 0.000E+00 0.140E-44
BIGSUB   2        0   34.29683E+02 0.000E+00 0.280E-44
BIGSUB   3        0   34.13608E+02 0.000E+00 0.420E-44
BIGSUB   4        0   34.24323E+02 0.000E+00 0.561E-44
BIGSUB   1        0   35.24954E+02 0.000E+00 0.140E-44
BIGSUB   2        0   35.29683E+02 0.000E+00 0.280E-44
BIGSUB   3        0   35.13608E+02 0.000E+00 0.420E-44
BIGSUB   4        0   35.24323E+02 0.000E+00 0.561E-44
BIGSUB   1        0   36.24954E+02 0.000E+00 0.140E-44
BIGSUB   2        0   36.29683E+02 0.000E+00 0.280E-44
BIGSUB   3        0   36.13608E+02 0.000E+00 0.420E-44
BIGSUB   4        0   36.24323E+02 0.000E+00 0.561E-44
BIGSUB   1        0   37.24954E+02 0.509E+00 0.140E-44
BIGSUB   2        0   37.29683E+02 0.509E+00 0.280E-44
BIGSUB   3        0   37.13608E+02 0.000E+00 0.420E-44
BIGSUB   4        0   37.24323E+02 0.000E+00 0.561E-44
BIGSUB   1        0   38.24954E+02 0.000E+00 0.140E-44
BIGSUB   2        0   38.29683E+02 0.000E+00 0.280E-44
BIGSUB   3        0   38.13608E+02 0.318E+01 0.420E-44
BIGSUB   4        0   38.24323E+02 0.318E+01 0.561E-44
BIGSUB   1        0   39.24954E+02 0.129E+02 0.140E-44
BIGSUB   2        0   39.29683E+02 0.129E+02 0.280E-44
BIGSUB   3        0   39.13608E+02 0.152E+01 0.420E-44
BIGSUB   4        0   39.24323E+02 0.152E+01 0.561E-44
BIGSUB   1        0   40.24954E+02 0.000E+00 0.140E-44
BIGSUB   2        0   40.29683E+02 0.000E+00 0.280E-44
BIGSUB   3        0   40.13608E+02 0.163E+02 0.420E-44
BIGSUB   4        0   40.24323E+02 0.163E+02 0.561E-44
BIGSUB   1        0   41.24954E+02 0.660E+00 0.140E-44
BIGSUB   2        0   41.29683E+02 0.660E+00 0.280E-44
BIGSUB   3        0   41.13608E+02 0.000E+00 0.420E-44
BIGSUB   4        0   41.24323E+02 0.000E+00 0.561E-44
BIGSUB   1        0   42.24954E+02 0.151E+02 0.140E-44
BIGSUB   2        0   42.29683E+02 0.151E+02 0.280E-44
BIGSUB   3        0   42.13608E+02 0.000E+00 0.420E-44
BIGSUB   4        0   42.24323E+02 0.000E+00 0.561E-44
BIGSUB   1        0   43.24954E+02 0.170E+01 0.140E-44
BIGSUB   2        0   43.29683E+02 0.170E+01 0.280E-44
BIGSUB   3        0   43.13608E+02 0.000E+00 0.420E-44
BIGSUB   4        0   43.24323E+02 0.000E+00 0.561E-44
BIGSUB   1        0   44.24954E+02 0.000E+00 0.140E-44
BIGSUB   2        0   44.29683E+02 0.000E+00 0.280E-44
BIGSUB   3        0   44.13608E+02 0.000E+00 0.420E-44
BIGSUB   4        0   44.24323E+02 0.000E+00 0.561E-44
BIGSUB   1        0   45.24954E+02 0.000E+00 0.140E-44
BIGSUB   2        0   45.29683E+02 0.000E+00 0.280E-44
BIGSUB   3        0   45.13608E+02 0.000E+00 0.420E-44
BIGSUB   4        0   45.24323E+02 0.000E+00 0.561E-44
BIGSUB   1        0   46.24954E+02 0.000E+00 0.140E-44
BIGSUB   2        0   46.29683E+02 0.000E+00 0.280E-44
BIGSUB   3        0   46.13608E+02 0.000E+00 0.420E-44
BIGSUB   4        0   46.24323E+02 0.000E+00 0.561E-44
BIGSUB   1        0   47.24954E+02 0.000E+00 0.140E-44
BIGSUB   2        0   47.29683E+02 0.000E+00 0.280E-44
BIGSUB   3        0   47.13608E+02 0.000E+00 0.420E-44
BIGSUB   4        0   47.24323E+02 0.000E+00 0.561E-44
BIGSUB   1        0   48.24954E+02 0.000E+00 0.140E-44
BIGSUB   2        0   48.29683E+02 0.000E+00 0.280E-44
BIGSUB   3        0   48.13608E+02 0.000E+00 0.420E-44
BIGSUB   4        0   48.24323E+02 0.000E+00 0.561E-44
BIGSUB   1        0   49.24954E+02 0.149E+02 0.140E-44
BIGSUB   2        0   49.29683E+02 0.149E+02 0.280E-44
BIGSUB   3        0   49.13608E+02 0.000E+00 0.420E-44
BIGSUB   4        0   49.24323E+02 0.000E+00 0.561E-44
BIGSUB   1        0   50.24954E+02 0.401E+01 0.140E-44
BIGSUB   2        0   50.29683E+02 0.401E+01 0.280E-44
BIGSUB   3        0   50.13608E+02 0.000E+00 0.420E-44
BIGSUB   4        0   50.24323E+02 0.000E+00 0.561E-44
BIGSUB   1        0   51.24954E+02 0.000E+00 0.140E-44
BIGSUB   2        0   51.29683E+02 0.000E+00 0.280E-44
BIGSUB   3        0   51.13608E+02 0.000E+00 0.420E-44
BIGSUB   4        0   51.24323E+02 0.000E+00 0.561E-44
BIGSUB   1        0   52.24954E+02 0.000E+00 0.140E-44
BIGSUB   2        0   52.29683E+02 0.000E+00 0.280E-44
BIGSUB   3        0   52.13608E+02 0.369E+02 0.420E-44
BIGSUB   4        0   52.24323E+02 0.369E+02 0.561E-44
BIGSUB   1        0   53.24954E+02 0.000E+00 0.140E-44
BIGSUB   2        0   53.29683E+02 0.000E+00 0.280E-44
BIGSUB   3        0   53.13608E+02 0.367E+00 0.420E-44
BIGSUB   4        0   53.24323E+02 0.367E+00 0.561E-44
BIGSUB   1        0   54.24954E+02 0.000E+00 0.140E-44
BIGSUB   2        0   54.29683E+02 0.000E+00 0.280E-44
BIGSUB   3        0   54.13608E+02 0.000E+00 0.420E-44
BIGSUB   4        0   54.24323E+02 0.000E+00 0.561E-44
BIGSUB   1        0   55.24954E+02 0.132E+02 0.140E-44
BIGSUB   2        0   55.29683E+02 0.132E+02 0.280E-44
BIGSUB   3        0   55.13608E+02 0.000E+00 0.420E-44
BIGSUB   4        0   55.24323E+02 0.000E+00 0.561E-44
BIGSUB   1        0   56.24954E+02 0.000E+00 0.140E-44
BIGSUB   2        0   56.29683E+02 0.000E+00 0.280E-44
BIGSUB   3        0   56.13608E+02 0.000E+00 0.420E-44
BIGSUB   4        0   56.24323E+02 0.000E+00 0.561E-44
BIGSUB   1        0   57.24954E+02 0.000E+00 0.140E-44
BIGSUB   2        0   57.29683E+02 0.000E+00 0.280E-44
BIGSUB   3        0   57.13608E+02 0.562E+01 0.420E-44
BIGSUB   4        0   57.24323E+02 0.562E+01 0.561E-44
BIGSUB   1        0   58.24954E+02 0.000E+00 0.140E-44
BIGSUB   2        0   58.29683E+02 0.000E+00 0.280E-44
BIGSUB   3        0   58.13608E+02 0.228E+01 0.420E-44
BIGSUB   4        0   58.24323E+02 0.228E+01 0.561E-44
BIGSUB   1        0   59.24954E+02 0.000E+00 0.140E-44
BIGSUB   2        0   59.29683E+02 0.000E+00 0.280E-44
BIGSUB   3        0   59.13608E+02 0.000E+00 0.420E-44
BIGSUB   4        0   59.24323E+02 0.000E+00 0.561E-44
BIGSUB   1        0   60.24954E+02 0.000E+00 0.140E-44
BIGSUB   2        0   60.29683E+02 0.000E+00 0.280E-44
BIGSUB   3        0   60.13608E+02 0.000E+00 0.420E-44
BIGSUB   4        0   60.24323E+02 0.000E+00 0.561E-44
BIGSUB   1        0   61.24954E+02 0.000E+00 0.140E-44
BIGSUB   2        0   61.29683E+02 0.000E+00 0.280E-44
BIGSUB   3        0   61.13608E+02 0.000E+00 0.420E-44
BIGSUB   4        0   61.24323E+02 0.000E+00 0.561E-44
BIGSUB   1        0   62.24954E+02 0.255E+01 0.140E-44
BIGSUB   2        0   62.29683E+02 0.255E+01 0.280E-44
BIGSUB   3        0   62.13608E+02 0.000E+00 0.420E-44
BIGSUB   4        0   62.24323E+02 0.000E+00 0.561E-44
BIGSUB   1        0   63.24954E+02 0.000E+00 0.140E-44
BIGSUB   2        0   63.29683E+02 0.000E+00 0.280E-44
BIGSUB   3        0   63.13608E+02 0.000E+00 0.420E-44
BIGSUB   4        0   63.24323E+02 0.000E+00 0.561E-44
BIGSUB   1        0   64.24954E+02 0.000E+00 0.140E-44
BIGSUB   2        0   64.29683E+02 0.000E+00 0.280E-44
BIGSUB   3        0   64.13608E+02 0.000E+00 0.420E-44
BIGSUB   4        0   64.24323E+02 0.000E+00 0.561E-44
BIGSUB   1        0   65.24954E+02 0.000E+00 0.140E-44
BIGSUB   2        0   65.29683E+02 0.000E+00 0.280E-44
BIGSUB   3        0   65.13608E+02 0.000E+00 0.420E-44
BIGSUB   4        0   65.24323E+02 0.000E+00 0.561E-44
BIGSUB   1        0   66.24954E+02 0.438E+01 0.140E-44
BIGSUB   2        0   66.29683E+02 0.438E+01 0.280E-44
BIGSUB   3        0   66.13608E+02 0.110E+02 0.420E-44
BIGSUB   4        0   66.24323E+02 0.110E+02 0.561E-44
BIGSUB   1        0   67.24954E+02 0.927E+00 0.140E-44
BIGSUB   2        0   67.29683E+02 0.927E+00 0.280E-44
BIGSUB   3        0   67.13608E+02 0.109E+02 0.420E-44
BIGSUB   4        0   67.24323E+02 0.109E+02 0.561E-44
BIGSUB   1        0   68.24954E+02 0.000E+00 0.140E-44
BIGSUB   2        0   68.29683E+02 0.000E+00 0.280E-44
BIGSUB   3        0   68.13608E+02 0.191E+01 0.420E-44
BIGSUB   4        0   68.24323E+02 0.191E+01 0.561E-44
BIGSUB   1        0   69.24954E+02 0.153E+01 0.140E-44
BIGSUB   2        0   69.29683E+02 0.153E+01 0.280E-44
BIGSUB   3        0   69.13608E+02 0.000E+00 0.420E-44
BIGSUB   4        0   69.24323E+02 0.000E+00 0.561E-44
BIGSUB   1        0   70.24954E+02 0.000E+00 0.140E-44
BIGSUB   2        0   70.29683E+02 0.000E+00 0.280E-44
BIGSUB   3        0   70.13608E+02 0.000E+00 0.420E-44
BIGSUB   4        0   70.24323E+02 0.000E+00 0.561E-44
BIGSUB   1        0   71.24954E+02 0.000E+00 0.140E-44
BIGSUB   2        0   71.29683E+02 0.000E+00 0.280E-44
BIGSUB   3        0   71.13608E+02 0.000E+00 0.420E-44
BIGSUB   4        0   71.24323E+02 0.000E+00 0.561E-44
BIGSUB   1        0   72.24954E+02 0.000E+00 0.140E-44
BIGSUB   2        0   72.29683E+02 0.000E+00 0.280E-44
BIGSUB   3        0   72.13608E+02 0.272E+01 0.420E-44
BIGSUB   4        0   72.24323E+02 0.272E+01 0.561E-44
BIGSUB   1        0   73.24954E+02 0.000E+00 0.140E-44
BIGSUB   2        0   73.29683E+02 0.000E+00 0.280E-44
BIGSUB   3        0   73.13608E+02 0.102E+02 0.420E-44
BIGSUB   4        0   73.24323E+02 0.102E+02 0.561E-44
BIGSUB   1        0   74.24954E+02 0.000E+00 0.140E-44
BIGSUB   2        0   74.29683E+02 0.000E+00 0.280E-44
BIGSUB   3        0   74.13608E+02 0.185E+01 0.420E-44
BIGSUB   4        0   74.24323E+02 0.185E+01 0.561E-44
BIGSUB   1        0   75.24954E+02 0.000E+00 0.140E-44
BIGSUB   2        0   75.29683E+02 0.000E+00 0.280E-44
BIGSUB   3        0   75.13608E+02 0.185E+02 0.420E-44
BIGSUB   4        0   75.24323E+02 0.185E+02 0.561E-44
BIGSUB   1        0   76.24954E+02 0.000E+00 0.140E-44
BIGSUB   2        0   76.29683E+02 0.000E+00 0.280E-44
BIGSUB   3        0   76.13608E+02 0.182E+01 0.420E-44
BIGSUB   4        0   76.24323E+02 0.182E+01 0.561E-44
BIGSUB   1        0   77.24954E+02 0.134E+02 0.140E-44
BIGSUB   2        0   77.29683E+02 0.134E+02 0.280E-44
BIGSUB   3        0   77.13608E+02 0.000E+00 0.420E-44
BIGSUB   4        0   77.24323E+02 0.000E+00 0.561E-44
BIGSUB   1        0   78.24954E+02 0.391E+02 0.140E-44
BIGSUB   2        0   78.29683E+02 0.391E+02 0.280E-44
BIGSUB   3        0   78.13608E+02 0.000E+00 0.420E-44
BIGSUB   4        0   78.24323E+02 0.000E+00 0.561E-44
BIGSUB   1        0   79.24954E+02 0.000E+00 0.140E-44
BIGSUB   2        0   79.29683E+02 0.000E+00 0.280E-44
BIGSUB   3        0   79.13608E+02 0.000E+00 0.420E-44
BIGSUB   4        0   79.24323E+02 0.000E+00 0.561E-44
BIGSUB   1        0   80.24954E+02 0.234E+01 0.140E-44
BIGSUB   2        0   80.29683E+02 0.234E+01 0.280E-44
BIGSUB   3        0   80.13608E+02 0.000E+00 0.420E-44
BIGSUB   4        0   80.24323E+02 0.000E+00 0.561E-44
BIGSUB   1        0   81.24954E+02 0.000E+00 0.140E-44
BIGSUB   2        0   81.29683E+02 0.000E+00 0.280E-44
BIGSUB   3        0   81.13608E+02 0.000E+00 0.420E-44
BIGSUB   4        0   81.24323E+02 0.000E+00 0.561E-44
BIGSUB   1        0   82.24954E+02 0.000E+00 0.140E-44
BIGSUB   2        0   82.29683E+02 0.000E+00 0.280E-44
BIGSUB   3        0   82.13608E+02 0.189E+02 0.420E-44
BIGSUB   4        0   82.24323E+02 0.189E+02 0.561E-44
BIGSUB   1        0   83.24954E+02 0.000E+00 0.140E-44
BIGSUB   2        0   83.29683E+02 0.000E+00 0.280E-44
BIGSUB   3        0   83.13608E+02 0.000E+00 0.420E-44
BIGSUB   4        0   83.24323E+02 0.000E+00 0.561E-44
BIGSUB   1        0   84.24954E+02 0.000E+00 0.140E-44
BIGSUB   2        0   84.29683E+02 0.000E+00 0.280E-44
BIGSUB   3        0   84.13608E+02 0.000E+00 0.420E-44
BIGSUB   4        0   84.24323E+02 0.000E+00 0.561E-44
BIGSUB   1        0   85.24954E+02 0.000E+00 0.140E-44
BIGSUB   2        0   85.29683E+02 0.000E+00 0.280E-44
BIGSUB   3        0   85.13608E+02 0.000E+00 0.420E-44
BIGSUB   4        0   85.24323E+02 0.000E+00 0.561E-44
BIGSUB   1        0   86.24954E+02 0.000E+00 0.140E-44
BIGSUB   2        0   86.29683E+02 0.000E+00 0.280E-44
BIGSUB   3        0   86.13608E+02 0.311E+01 0.420E-44
BIGSUB   4        0   86.24323E+02 0.311E+01 0.561E-44
BIGSUB   1        0   87.24954E+02 0.000E+00 0.140E-44
BIGSUB   2        0   87.29683E+02 0.000E+00 0.280E-44
BIGSUB   3        0   87.13608E+02 0.330E+01 0.420E-44
BIGSUB   4        0   87.24323E+02 0.330E+01 0.561E-44
BIGSUB   1        0   88.24954E+02 0.000E+00 0.140E-44
BIGSUB   2        0   88.29683E+02 0.000E+00 0.280E-44
BIGSUB   3        0   88.13608E+02 0.000E+00 0.420E-44
BIGSUB   4        0   88.24323E+02 0.000E+00 0.561E-44
BIGSUB   1        0   89.24954E+02 0.000E+00 0.140E-44
BIGSUB   2        0   89.29683E+02 0.000E+00 0.280E-44
BIGSUB   3        0   89.13608E+02 0.000E+00 0.420E-44
BIGSUB   4        0   89.24323E+02 0.000E+00 0.561E-44
BIGSUB   1        0   90.24954E+02 0.204E+01 0.140E-44
BIGSUB   2        0   90.29683E+02 0.204E+01 0.280E-44
BIGSUB   3        0   90.13608E+02 0.107E+02 0.420E-44
BIGSUB   4        0   90.24323E+02 0.107E+02 0.561E-44
BIGSUB   1        0   91.24954E+02 0.000E+00 0.140E-44
BIGSUB   2        0   91.29683E+02 0.000E+00 0.280E-44
BIGSUB   3        0   91.13608E+02 0.000E+00 0.420E-44
BIGSUB   4        0   91.24323E+02 0.000E+00 0.561E-44
BIGSUB   1        0   92.24954E+02 0.000E+00 0.140E-44
BIGSUB   2        0   92.29683E+02 0.000E+00 0.280E-44
BIGSUB   3        0   92.13608E+02 0.000E+00 0.420E-44
BIGSUB   4        0   92.24323E+02 0.000E+00 0.561E-44
BIGSUB   1        0   93.24954E+02 0.000E+00 0.140E-44
BIGSUB   2        0   93.29683E+02 0.000E+00 0.280E-44
BIGSUB   3        0   93.13608E+02 0.000E+00 0.420E-44
BIGSUB   4        0   93.24323E+02 0.000E+00 0.561E-44
BIGSUB   1        0   94.24954E+02 0.000E+00 0.140E-44
BIGSUB   2        0   94.29683E+02 0.000E+00 0.280E-44
BIGSUB   3        0   94.13608E+02 0.000E+00 0.420E-44
BIGSUB   4        0   94.24323E+02 0.000E+00 0.561E-44
BIGSUB   1        0   95.24954E+02 0.000E+00 0.140E-44
BIGSUB   2        0   95.29683E+02 0.000E+00 0.280E-44
BIGSUB   3        0   95.13608E+02 0.000E+00 0.420E-44
BIGSUB   4        0   95.24323E+02 0.000E+00 0.561E-44
BIGSUB   1        0   96.24954E+02 0.000E+00 0.140E-44
BIGSUB   2        0   96.29683E+02 0.000E+00 0.280E-44
BIGSUB   3        0   96.13608E+02 0.000E+00 0.420E-44
BIGSUB   4        0   96.24323E+02 0.000E+00 0.561E-44
BIGSUB   1        0   97.24954E+02 0.000E+00 0.140E-44
BIGSUB   2        0   97.29683E+02 0.000E+00 0.280E-44
BIGSUB   3        0   97.13608E+02 0.295E+01 0.420E-44
BIGSUB   4        0   97.24323E+02 0.295E+01 0.561E-44
BIGSUB   1        0   98.24954E+02 0.000E+00 0.140E-44
BIGSUB   2        0   98.29683E+02 0.000E+00 0.280E-44
BIGSUB   3        0   98.13608E+02 0.119E+02 0.420E-44
BIGSUB   4        0   98.24323E+02 0.119E+02 0.561E-44
BIGSUB   1        0   99.24954E+02 0.000E+00 0.140E-44
BIGSUB   2        0   99.29683E+02 0.000E+00 0.280E-44
BIGSUB   3        0   99.13608E+02 0.000E+00 0.420E-44
BIGSUB   4        0   99.24323E+02 0.000E+00 0.561E-44
BIGSUB   1        0  100.24954E+02 0.563E+01 0.140E-44
BIGSUB   2        0  100.29683E+02 0.563E+01 0.280E-44
BIGSUB   3        0  100.13608E+02 0.000E+00 0.420E-44
BIGSUB   4        0  100.24323E+02 0.000E+00 0.561E-44
BIGSUB   1        0  101.24954E+02 0.000E+00 0.140E-44
BIGSUB   2        0  101.29683E+02 0.000E+00 0.280E-44
BIGSUB   3        0  101.13608E+02 0.000E+00 0.420E-44
BIGSUB   4        0  101.24323E+02 0.000E+00 0.561E-44
BIGSUB   1        0  102.24954E+02 0.753E+00 0.140E-44
BIGSUB   2        0  102.29683E+02 0.753E+00 0.280E-44
BIGSUB   3        0  102.13608E+02 0.000E+00 0.420E-44
BIGSUB   4        0  102.24323E+02 0.000E+00 0.561E-44
BIGSUB   1        0  103.24954E+02 0.108E+02 0.140E-44
BIGSUB   2        0  103.29683E+02 0.108E+02 0.280E-44
BIGSUB   3        0  103.13608E+02 0.311E+01 0.420E-44
BIGSUB   4        0  103.24323E+02 0.311E+01 0.561E-44
BIGSUB   1        0  104.24954E+02 0.000E+00 0.140E-44
BIGSUB   2        0  104.29683E+02 0.000E+00 0.280E-44
BIGSUB   3        0  104.13608E+02 0.124E+01 0.420E-44
BIGSUB   4        0  104.24323E+02 0.124E+01 0.561E-44
BIGSUB   1        0  105.24954E+02 0.276E+00 0.140E-44
BIGSUB   2        0  105.29683E+02 0.276E+00 0.280E-44
BIGSUB   3        0  105.13608E+02 0.000E+00 0.420E-44
BIGSUB   4        0  105.24323E+02 0.000E+00 0.561E-44
BIGSUB   1        0  106.24954E+02 0.156E+02 0.140E-44
BIGSUB   2        0  106.29683E+02 0.156E+02 0.280E-44
BIGSUB   3        0  106.13608E+02 0.000E+00 0.420E-44
BIGSUB   4        0  106.24323E+02 0.000E+00 0.561E-44
BIGSUB   1        0  107.24954E+02 0.000E+00 0.140E-44
BIGSUB   2        0  107.29683E+02 0.000E+00 0.280E-44
BIGSUB   3        0  107.13608E+02 0.000E+00 0.420E-44
BIGSUB   4        0  107.24323E+02 0.000E+00 0.561E-44
BIGSUB   1        0  108.24954E+02 0.000E+00 0.140E-44
BIGSUB   2        0  108.29683E+02 0.000E+00 0.280E-44
BIGSUB   3        0  108.13608E+02 0.000E+00 0.420E-44
BIGSUB   4        0  108.24323E+02 0.000E+00 0.561E-44
BIGSUB   1        0  109.24954E+02 0.000E+00 0.140E-44
BIGSUB   2        0  109.29683E+02 0.000E+00 0.280E-44
BIGSUB   3        0  109.13608E+02 0.000E+00 0.420E-44
BIGSUB   4        0  109.24323E+02 0.000E+00 0.561E-44
BIGSUB   1        0  110.24954E+02 0.000E+00 0.140E-44
BIGSUB   2        0  110.29683E+02 0.000E+00 0.280E-44
BIGSUB   3        0  110.13608E+02 0.000E+00 0.420E-44
BIGSUB   4        0  110.24323E+02 0.000E+00 0.561E-44
BIGSUB   1        0  111.24954E+02 0.000E+00 0.140E-44
BIGSUB   2        0  111.29683E+02 0.000E+00 0.280E-44
BIGSUB   3        0  111.13608E+02 0.000E+00 0.420E-44
BIGSUB   4        0  111.24323E+02 0.000E+00 0.561E-44
BIGSUB   1        0  112.24954E+02 0.000E+00 0.140E-44
BIGSUB   2        0  112.29683E+02 0.000E+00 0.280E-44
BIGSUB   3        0  112.13608E+02 0.000E+00 0.420E-44
BIGSUB   4        0  112.24323E+02 0.000E+00 0.561E-44
BIGSUB   1        0  113.24954E+02 0.000E+00 0.140E-44
BIGSUB   2        0  113.29683E+02 0.000E+00 0.280E-44
BIGSUB   3        0  113.13608E+02 0.000E+00 0.420E-44
BIGSUB   4        0  113.24323E+02 0.000E+00 0.561E-44
BIGSUB   1        0  114.24954E+02 0.000E+00 0.140E-44
BIGSUB   2        0  114.29683E+02 0.000E+00 0.280E-44
BIGSUB   3        0  114.13608E+02 0.000E+00 0.420E-44
BIGSUB   4        0  114.24323E+02 0.000E+00 0.561E-44
BIGSUB   1        0  115.24954E+02 0.000E+00 0.140E-44
BIGSUB   2        0  115.29683E+02 0.000E+00 0.280E-44
BIGSUB   3        0  115.13608E+02 0.000E+00 0.420E-44
BIGSUB   4        0  115.24323E+02 0.000E+00 0.561E-44
BIGSUB   1        0  116.24954E+02 0.000E+00 0.140E-44
BIGSUB   2        0  116.29683E+02 0.000E+00 0.280E-44
BIGSUB   3        0  116.13608E+02 0.000E+00 0.420E-44
BIGSUB   4        0  116.24323E+02 0.000E+00 0.561E-44
BIGSUB   1        0  117.24954E+02 0.000E+00 0.140E-44
BIGSUB   2        0  117.29683E+02 0.000E+00 0.280E-44
BIGSUB   3        0  117.13608E+02 0.170E+02 0.420E-44
BIGSUB   4        0  117.24323E+02 0.170E+02 0.561E-44
BIGSUB   1        0  118.24954E+02 0.000E+00 0.140E-44
BIGSUB   2        0  118.29683E+02 0.000E+00 0.280E-44
BIGSUB   3        0  118.13608E+02 0.000E+00 0.420E-44
BIGSUB   4        0  118.24323E+02 0.000E+00 0.561E-44
BIGSUB   1        0  119.24954E+02 0.000E+00 0.140E-44
BIGSUB   2        0  119.29683E+02 0.000E+00 0.280E-44
BIGSUB   3        0  119.13608E+02 0.000E+00 0.420E-44
BIGSUB   4        0  119.24323E+02 0.000E+00 0.561E-44
BIGSUB   1        0  120.24954E+02 0.000E+00 0.140E-44
BIGSUB   2        0  120.29683E+02 0.000E+00 0.280E-44
BIGSUB   3        0  120.13608E+02 0.000E+00 0.420E-44
BIGSUB   4        0  120.24323E+02 0.000E+00 0.561E-44
BIGSUB   1        0  121.24954E+02 0.000E+00 0.140E-44
BIGSUB   2        0  121.29683E+02 0.000E+00 0.280E-44
BIGSUB   3        0  121.13608E+02 0.417E+01 0.420E-44
BIGSUB   4        0  121.24323E+02 0.417E+01 0.561E-44
BIGSUB   1        0  122.24954E+02 0.000E+00 0.140E-44
BIGSUB   2        0  122.29683E+02 0.000E+00 0.280E-44
BIGSUB   3        0  122.13608E+02 0.000E+00 0.420E-44
BIGSUB   4        0  122.24323E+02 0.000E+00 0.561E-44
BIGSUB   1        0  123.24954E+02 0.000E+00 0.140E-44
BIGSUB   2        0  123.29683E+02 0.000E+00 0.280E-44
BIGSUB   3        0  123.13608E+02 0.000E+00 0.420E-44
BIGSUB   4        0  123.24323E+02 0.000E+00 0.561E-44
BIGSUB   1        0  124.24954E+02 0.599E+00 0.140E-44
BIGSUB   2        0  124.29683E+02 0.599E+00 0.280E-44
BIGSUB   3        0  124.13608E+02 0.000E+00 0.420E-44
BIGSUB   4        0  124.24323E+02 0.000E+00 0.561E-44
BIGSUB   1        0  125.24954E+02 0.000E+00 0.140E-44
BIGSUB   2        0  125.29683E+02 0.000E+00 0.280E-44
BIGSUB   3        0  125.13608E+02 0.000E+00 0.420E-44
BIGSUB   4        0  125.24323E+02 0.000E+00 0.561E-44
BIGSUB   1        0  126.24954E+02 0.000E+00 0.140E-44
BIGSUB   2        0  126.29683E+02 0.000E+00 0.280E-44
BIGSUB   3        0  126.13608E+02 0.124E+01 0.420E-44
BIGSUB   4        0  126.24323E+02 0.124E+01 0.561E-44
BIGSUB   1        0  127.24954E+02 0.000E+00 0.140E-44
BIGSUB   2        0  127.29683E+02 0.000E+00 0.280E-44
BIGSUB   3        0  127.13608E+02 0.179E+02 0.420E-44
BIGSUB   4        0  127.24323E+02 0.179E+02 0.561E-44
BIGSUB   1        0  128.24954E+02 0.000E+00 0.140E-44
BIGSUB   2        0  128.29683E+02 0.000E+00 0.280E-44
BIGSUB   3        0  128.13608E+02 0.000E+00 0.420E-44
BIGSUB   4        0  128.24323E+02 0.000E+00 0.561E-44
BIGSUB   1        0  129.24954E+02 0.000E+00 0.140E-44
BIGSUB   2        0  129.29683E+02 0.000E+00 0.280E-44
BIGSUB   3        0  129.13608E+02 0.000E+00 0.420E-44
BIGSUB   4        0  129.24323E+02 0.000E+00 0.561E-44
BIGSUB   1        0  130.24954E+02 0.000E+00 0.140E-44
BIGSUB   2        0  130.29683E+02 0.000E+00 0.280E-44
BIGSUB   3        0  130.13608E+02 0.000E+00 0.420E-44
BIGSUB   4        0  130.24323E+02 0.000E+00 0.561E-44
BIGSUB   1        0  131.24954E+02 0.000E+00 0.140E-44
BIGSUB   2        0  131.29683E+02 0.000E+00 0.280E-44
BIGSUB   3        0  131.13608E+02 0.000E+00 0.420E-44
BIGSUB   4        0  131.24323E+02 0.000E+00 0.561E-44
BIGSUB   1        0  132.24954E+02 0.000E+00 0.140E-44
BIGSUB   2        0  132.29683E+02 0.000E+00 0.280E-44
BIGSUB   3        0  132.13608E+02 0.000E+00 0.420E-44
BIGSUB   4        0  132.24323E+02 0.000E+00 0.561E-44
BIGSUB   1        0  133.24954E+02 0.173E+02 0.140E-44
BIGSUB   2        0  133.29683E+02 0.173E+02 0.280E-44
BIGSUB   3        0  133.13608E+02 0.000E+00 0.420E-44
BIGSUB   4        0  133.24323E+02 0.000E+00 0.561E-44
BIGSUB   1        0  134.24954E+02 0.000E+00 0.140E-44
BIGSUB   2        0  134.29683E+02 0.000E+00 0.280E-44
BIGSUB   3        0  134.13608E+02 0.000E+00 0.420E-44
BIGSUB   4        0  134.24323E+02 0.000E+00 0.561E-44
BIGSUB   1        0  135.24954E+02 0.000E+00 0.140E-44
BIGSUB   2        0  135.29683E+02 0.000E+00 0.280E-44
BIGSUB   3        0  135.13608E+02 0.000E+00 0.420E-44
BIGSUB   4        0  135.24323E+02 0.000E+00 0.561E-44
BIGSUB   1        0  136.24954E+02 0.000E+00 0.140E-44
BIGSUB   2        0  136.29683E+02 0.000E+00 0.280E-44
BIGSUB   3        0  136.13608E+02 0.233E+01 0.420E-44
BIGSUB   4        0  136.24323E+02 0.233E+01 0.561E-44
BIGSUB   1        0  137.24954E+02 0.104E+02 0.140E-44
BIGSUB   2        0  137.29683E+02 0.104E+02 0.280E-44
BIGSUB   3        0  137.13608E+02 0.000E+00 0.420E-44
BIGSUB   4        0  137.24323E+02 0.000E+00 0.561E-44
BIGSUB   1        0  138.24954E+02 0.305E+00 0.140E-44
BIGSUB   2        0  138.29683E+02 0.305E+00 0.280E-44
BIGSUB   3        0  138.13608E+02 0.000E+00 0.420E-44
BIGSUB   4        0  138.24323E+02 0.000E+00 0.561E-44
BIGSUB   1        0  139.24954E+02 0.000E+00 0.140E-44
BIGSUB   2        0  139.29683E+02 0.000E+00 0.280E-44
BIGSUB   3        0  139.13608E+02 0.242E+01 0.420E-44
BIGSUB   4        0  139.24323E+02 0.242E+01 0.561E-44
BIGSUB   1        0  140.24954E+02 0.234E+01 0.140E-44
BIGSUB   2        0  140.29683E+02 0.234E+01 0.280E-44
BIGSUB   3        0  140.13608E+02 0.169E+02 0.420E-44
BIGSUB   4        0  140.24323E+02 0.169E+02 0.561E-44
BIGSUB   1        0  141.24954E+02 0.305E+00 0.140E-44
BIGSUB   2        0  141.29683E+02 0.305E+00 0.280E-44
BIGSUB   3        0  141.13608E+02 0.559E+01 0.420E-44
BIGSUB   4        0  141.24323E+02 0.559E+01 0.561E-44
BIGSUB   1        0  142.24954E+02 0.000E+00 0.140E-44
BIGSUB   2        0  142.29683E+02 0.000E+00 0.280E-44
BIGSUB   3        0  142.13608E+02 0.000E+00 0.420E-44
BIGSUB   4        0  142.24323E+02 0.000E+00 0.561E-44
BIGSUB   1        0  143.24954E+02 0.000E+00 0.140E-44
BIGSUB   2        0  143.29683E+02 0.000E+00 0.280E-44
BIGSUB   3        0  143.13608E+02 0.000E+00 0.420E-44
BIGSUB   4        0  143.24323E+02 0.000E+00 0.561E-44
BIGSUB   1        0  144.24954E+02 0.468E+01 0.140E-44
BIGSUB   2        0  144.29683E+02 0.468E+01 0.280E-44
BIGSUB   3        0  144.13608E+02 0.000E+00 0.420E-44
BIGSUB   4        0  144.24323E+02 0.000E+00 0.561E-44
BIGSUB   1        0  145.24954E+02 0.305E+00 0.140E-44
BIGSUB   2        0  145.29683E+02 0.305E+00 0.280E-44
BIGSUB   3        0  145.13608E+02 0.000E+00 0.420E-44
BIGSUB   4        0  145.24323E+02 0.000E+00 0.561E-44
BIGSUB   1        0  146.24954E+02 0.000E+00 0.140E-44
BIGSUB   2        0  146.29683E+02 0.000E+00 0.280E-44
BIGSUB   3        0  146.13608E+02 0.000E+00 0.420E-44
BIGSUB   4        0  146.24323E+02 0.000E+00 0.561E-44
BIGSUB   1        0  147.24954E+02 0.000E+00 0.140E-44
BIGSUB   2        0  147.29683E+02 0.000E+00 0.280E-44
BIGSUB   3        0  147.13608E+02 0.000E+00 0.420E-44
BIGSUB   4        0  147.24323E+02 0.000E+00 0.561E-44
BIGSUB   1        0  148.24954E+02 0.102E+01 0.140E-44
BIGSUB   2        0  148.29683E+02 0.102E+01 0.280E-44
BIGSUB   3        0  148.13608E+02 0.000E+00 0.420E-44
BIGSUB   4        0  148.24323E+02 0.000E+00 0.561E-44
BIGSUB   1        0  149.24954E+02 0.000E+00 0.140E-44
BIGSUB   2        0  149.29683E+02 0.000E+00 0.280E-44
BIGSUB   3        0  149.13608E+02 0.000E+00 0.420E-44
BIGSUB   4        0  149.24323E+02 0.000E+00 0.561E-44
BIGSUB   1        0  150.24954E+02 0.000E+00 0.140E-44
BIGSUB   2        0  150.29683E+02 0.000E+00 0.280E-44
BIGSUB   3        0  150.13608E+02 0.000E+00 0.420E-44
BIGSUB   4        0  150.24323E+02 0.000E+00 0.561E-44
BIGSUB   1        0  151.24954E+02 0.935E+01 0.140E-44
BIGSUB   2        0  151.29683E+02 0.935E+01 0.280E-44
BIGSUB   3        0  151.13608E+02 0.000E+00 0.420E-44
BIGSUB   4        0  151.24323E+02 0.000E+00 0.561E-44
BIGSUB   1        0  152.24954E+02 0.145E+02 0.140E-44
BIGSUB   2        0  152.29683E+02 0.145E+02 0.280E-44
BIGSUB   3        0  152.13608E+02 0.149E+01 0.420E-44
BIGSUB   4        0  152.24323E+02 0.149E+01 0.561E-44
BIGSUB   1        0  153.24954E+02 0.000E+00 0.140E-44
BIGSUB   2        0  153.29683E+02 0.000E+00 0.280E-44
BIGSUB   3        0  153.13608E+02 0.140E+02 0.420E-44
BIGSUB   4        0  153.24323E+02 0.140E+02 0.561E-44
BIGSUB   1        0  154.24954E+02 0.000E+00 0.140E-44
BIGSUB   2        0  154.29683E+02 0.000E+00 0.280E-44
BIGSUB   3        0  154.13608E+02 0.947E+01 0.420E-44
BIGSUB   4        0  154.24323E+02 0.947E+01 0.561E-44
BIGSUB   1        0  155.24954E+02 0.000E+00 0.140E-44
BIGSUB   2        0  155.29683E+02 0.000E+00 0.280E-44
BIGSUB   3        0  155.13608E+02 0.373E+01 0.420E-44
BIGSUB   4        0  155.24323E+02 0.373E+01 0.561E-44
BIGSUB   1        0  156.24954E+02 0.334E+02 0.140E-44
BIGSUB   2        0  156.29683E+02 0.334E+02 0.280E-44
BIGSUB   3        0  156.13608E+02 0.959E+01 0.420E-44
BIGSUB   4        0  156.24323E+02 0.959E+01 0.561E-44
BIGSUB   1        0  157.24954E+02 0.305E+00 0.140E-44
BIGSUB   2        0  157.29683E+02 0.305E+00 0.280E-44
BIGSUB   3        0  157.13608E+02 0.169E+02 0.420E-44
BIGSUB   4        0  157.24323E+02 0.169E+02 0.561E-44
BIGSUB   1        0  158.24954E+02 0.408E+01 0.140E-44
BIGSUB   2        0  158.29683E+02 0.408E+01 0.280E-44
BIGSUB   3        0  158.13608E+02 0.000E+00 0.420E-44
BIGSUB   4        0  158.24323E+02 0.000E+00 0.561E-44
BIGSUB   1        0  159.24954E+02 0.383E+01 0.140E-44
BIGSUB   2        0  159.29683E+02 0.383E+01 0.280E-44
BIGSUB   3        0  159.13608E+02 0.000E+00 0.420E-44
BIGSUB   4        0  159.24323E+02 0.000E+00 0.561E-44
BIGSUB   1        0  160.24954E+02 0.163E+02 0.140E-44
BIGSUB   2        0  160.29683E+02 0.163E+02 0.280E-44
BIGSUB   3        0  160.13608E+02 0.000E+00 0.420E-44
BIGSUB   4        0  160.24323E+02 0.000E+00 0.561E-44
BIGSUB   1        0  161.24954E+02 0.000E+00 0.140E-44
BIGSUB   2        0  161.29683E+02 0.000E+00 0.280E-44
BIGSUB   3        0  161.13608E+02 0.000E+00 0.420E-44
BIGSUB   4        0  161.24323E+02 0.000E+00 0.561E-44
BIGSUB   1        0  162.24954E+02 0.000E+00 0.140E-44
BIGSUB   2        0  162.29683E+02 0.000E+00 0.280E-44
BIGSUB   3        0  162.13608E+02 0.000E+00 0.420E-44
BIGSUB   4        0  162.24323E+02 0.000E+00 0.561E-44
BIGSUB   1        0  163.24954E+02 0.000E+00 0.140E-44
BIGSUB   2        0  163.29683E+02 0.000E+00 0.280E-44
BIGSUB   3        0  163.13608E+02 0.871E+01 0.420E-44
BIGSUB   4        0  163.24323E+02 0.871E+01 0.561E-44
BIGSUB   1        0  164.24954E+02 0.565E+02 0.140E-44
BIGSUB   2        0  164.29683E+02 0.565E+02 0.280E-44
BIGSUB   3        0  164.13608E+02 0.000E+00 0.420E-44
BIGSUB   4        0  164.24323E+02 0.000E+00 0.561E-44
BIGSUB   1        0  165.24954E+02 0.000E+00 0.140E-44
BIGSUB   2        0  165.29683E+02 0.000E+00 0.280E-44
BIGSUB   3        0  165.13608E+02 0.000E+00 0.420E-44
BIGSUB   4        0  165.24323E+02 0.000E+00 0.561E-44
BIGSUB   1        0  166.24954E+02 0.000E+00 0.140E-44
BIGSUB   2        0  166.29683E+02 0.000E+00 0.280E-44
BIGSUB   3        0  166.13608E+02 0.000E+00 0.420E-44
BIGSUB   4        0  166.24323E+02 0.000E+00 0.561E-44
BIGSUB   1        0  167.24954E+02 0.540E+01 0.140E-44
BIGSUB   2        0  167.29683E+02 0.540E+01 0.280E-44
BIGSUB   3        0  167.13608E+02 0.000E+00 0.420E-44
BIGSUB   4        0  167.24323E+02 0.000E+00 0.561E-44
BIGSUB   1        0  168.24954E+02 0.113E+02 0.140E-44
BIGSUB   2        0  168.29683E+02 0.113E+02 0.280E-44
BIGSUB   3        0  168.13608E+02 0.220E+02 0.420E-44
BIGSUB   4        0  168.24323E+02 0.220E+02 0.561E-44
BIGSUB   1        0  169.24954E+02 0.360E+02 0.140E-44
BIGSUB   2        0  169.29683E+02 0.360E+02 0.280E-44
BIGSUB   3        0  169.13608E+02 0.128E+02 0.420E-44
BIGSUB   4        0  169.24323E+02 0.128E+02 0.561E-44
BIGSUB   1        0  170.24954E+02 0.000E+00 0.140E-44
BIGSUB   2        0  170.29683E+02 0.000E+00 0.280E-44
BIGSUB   3        0  170.13608E+02 0.000E+00 0.420E-44
BIGSUB   4        0  170.24323E+02 0.000E+00 0.561E-44
BIGSUB   1        0  171.24954E+02 0.584E+01 0.140E-44
BIGSUB   2        0  171.29683E+02 0.584E+01 0.280E-44
BIGSUB   3        0  171.13608E+02 0.000E+00 0.420E-44
BIGSUB   4        0  171.24323E+02 0.000E+00 0.561E-44
BIGSUB   1        0  172.24954E+02 0.995E+01 0.140E-44
BIGSUB   2        0  172.29683E+02 0.995E+01 0.280E-44
BIGSUB   3        0  172.13608E+02 0.000E+00 0.420E-44
BIGSUB   4        0  172.24323E+02 0.000E+00 0.561E-44
BIGSUB   1        0  173.24954E+02 0.000E+00 0.140E-44
BIGSUB   2        0  173.29683E+02 0.000E+00 0.280E-44
BIGSUB   3        0  173.13608E+02 0.000E+00 0.420E-44
BIGSUB   4        0  173.24323E+02 0.000E+00 0.561E-44
BIGSUB   1        0  174.24954E+02 0.000E+00 0.140E-44
BIGSUB   2        0  174.29683E+02 0.000E+00 0.280E-44
BIGSUB   3        0  174.13608E+02 0.000E+00 0.420E-44
BIGSUB   4        0  174.24323E+02 0.000E+00 0.561E-44
BIGSUB   1        0  175.24954E+02 0.000E+00 0.140E-44
BIGSUB   2        0  175.29683E+02 0.000E+00 0.280E-44
BIGSUB   3        0  175.13608E+02 0.144E+02 0.420E-44
BIGSUB   4        0  175.24323E+02 0.144E+02 0.561E-44
BIGSUB   1        0  176.24954E+02 0.699E+02 0.140E-44
BIGSUB   2        0  176.29683E+02 0.699E+02 0.280E-44
BIGSUB   3        0  176.13608E+02 0.102E+02 0.420E-44
BIGSUB   4        0  176.24323E+02 0.102E+02 0.561E-44
BIGSUB   1        0  177.24954E+02 0.452E+02 0.140E-44
BIGSUB   2        0  177.29683E+02 0.452E+02 0.280E-44
BIGSUB   3        0  177.13608E+02 0.454E+01 0.420E-44
BIGSUB   4        0  177.24323E+02 0.454E+01 0.561E-44
BIGSUB   1        0  178.24954E+02 0.255E+01 0.140E-44
BIGSUB   2        0  178.29683E+02 0.255E+01 0.280E-44
BIGSUB   3        0  178.13608E+02 0.137E+02 0.420E-44
BIGSUB   4        0  178.24323E+02 0.137E+02 0.561E-44
BIGSUB   1        0  179.24954E+02 0.000E+00 0.140E-44
BIGSUB   2        0  179.29683E+02 0.000E+00 0.280E-44
BIGSUB   3        0  179.13608E+02 0.328E+01 0.420E-44
BIGSUB   4        0  179.24323E+02 0.328E+01 0.561E-44
BIGSUB   1        0  180.24954E+02 0.000E+00 0.140E-44
BIGSUB   2        0  180.29683E+02 0.000E+00 0.280E-44
BIGSUB   3        0  180.13608E+02 0.186E+02 0.420E-44
BIGSUB   4        0  180.24323E+02 0.186E+02 0.561E-44
BIGSUB   1        0  181.24954E+02 0.244E+01 0.140E-44
BIGSUB   2        0  181.29683E+02 0.244E+01 0.280E-44
BIGSUB   3        0  181.13608E+02 0.000E+00 0.420E-44
BIGSUB   4        0  181.24323E+02 0.000E+00 0.561E-44
BIGSUB   1        0  182.24954E+02 0.361E+01 0.140E-44
BIGSUB   2        0  182.29683E+02 0.361E+01 0.280E-44
BIGSUB   3        0  182.13608E+02 0.663E+01 0.420E-44
BIGSUB   4        0  182.24323E+02 0.663E+01 0.561E-44
BIGSUB   1        0  183.24954E+02 0.202E+01 0.140E-44
BIGSUB   2        0  183.29683E+02 0.202E+01 0.280E-44
BIGSUB   3        0  183.13608E+02 0.888E+01 0.420E-44
BIGSUB   4        0  183.24323E+02 0.888E+01 0.561E-44
BIGSUB   1        0  184.24954E+02 0.000E+00 0.140E-44
BIGSUB   2        0  184.29683E+02 0.000E+00 0.280E-44
BIGSUB   3        0  184.13608E+02 0.262E+01 0.420E-44
BIGSUB   4        0  184.24323E+02 0.262E+01 0.561E-44
BIGSUB   1        0  185.24954E+02 0.305E+00 0.140E-44
BIGSUB   2        0  185.29683E+02 0.305E+00 0.280E-44
BIGSUB   3        0  185.13608E+02 0.000E+00 0.420E-44
BIGSUB   4        0  185.24323E+02 0.000E+00 0.561E-44
BIGSUB   1        0  186.24954E+02 0.000E+00 0.140E-44
BIGSUB   2        0  186.29683E+02 0.000E+00 0.280E-44
BIGSUB   3        0  186.13608E+02 0.000E+00 0.420E-44
BIGSUB   4        0  186.24323E+02 0.000E+00 0.561E-44
BIGSUB   1        0  187.24954E+02 0.194E+01 0.140E-44
BIGSUB   2        0  187.29683E+02 0.194E+01 0.280E-44
BIGSUB   3        0  187.13608E+02 0.746E+01 0.420E-44
BIGSUB   4        0  187.24323E+02 0.746E+01 0.561E-44
BIGSUB   1        0  188.24954E+02 0.289E+01 0.140E-44
BIGSUB   2        0  188.29683E+02 0.289E+01 0.280E-44
BIGSUB   3        0  188.13608E+02 0.000E+00 0.420E-44
BIGSUB   4        0  188.24323E+02 0.000E+00 0.561E-44
BIGSUB   1        0  189.24954E+02 0.000E+00 0.140E-44
BIGSUB   2        0  189.29683E+02 0.000E+00 0.280E-44
BIGSUB   3        0  189.13608E+02 0.000E+00 0.420E-44
BIGSUB   4        0  189.24323E+02 0.000E+00 0.561E-44
BIGSUB   1        0  190.24954E+02 0.305E+00 0.140E-44
BIGSUB   2        0  190.29683E+02 0.305E+00 0.280E-44
BIGSUB   3        0  190.13608E+02 0.000E+00 0.420E-44
BIGSUB   4        0  190.24323E+02 0.000E+00 0.561E-44
BIGSUB   1        0  191.24954E+02 0.000E+00 0.140E-44
BIGSUB   2        0  191.29683E+02 0.000E+00 0.280E-44
BIGSUB   3        0  191.13608E+02 0.261E+02 0.420E-44
BIGSUB   4        0  191.24323E+02 0.261E+02 0.561E-44
BIGSUB   1        0  192.24954E+02 0.000E+00 0.140E-44
BIGSUB   2        0  192.29683E+02 0.000E+00 0.280E-44
BIGSUB   3        0  192.13608E+02 0.752E+01 0.420E-44
BIGSUB   4        0  192.24323E+02 0.752E+01 0.561E-44
BIGSUB   1        0  193.24954E+02 0.000E+00 0.140E-44
BIGSUB   2        0  193.29683E+02 0.000E+00 0.280E-44
BIGSUB   3        0  193.13608E+02 0.625E+01 0.420E-44
BIGSUB   4        0  193.24323E+02 0.625E+01 0.561E-44
BIGSUB   1        0  194.24954E+02 0.000E+00 0.140E-44
BIGSUB   2        0  194.29683E+02 0.000E+00 0.280E-44
BIGSUB   3        0  194.13608E+02 0.693E+01 0.420E-44
BIGSUB   4        0  194.24323E+02 0.693E+01 0.561E-44
BIGSUB   1        0  195.24954E+02 0.000E+00 0.140E-44
BIGSUB   2        0  195.29683E+02 0.000E+00 0.280E-44
BIGSUB   3        0  195.13608E+02 0.000E+00 0.420E-44
BIGSUB   4        0  195.24323E+02 0.000E+00 0.561E-44
BIGSUB   1        0  196.24954E+02 0.000E+00 0.140E-44
BIGSUB   2        0  196.29683E+02 0.000E+00 0.280E-44
BIGSUB   3        0  196.13608E+02 0.000E+00 0.420E-44
BIGSUB   4        0  196.24323E+02 0.000E+00 0.561E-44
BIGSUB   1        0  197.24954E+02 0.000E+00 0.140E-44
BIGSUB   2        0  197.29683E+02 0.000E+00 0.280E-44
BIGSUB   3        0  197.13608E+02 0.833E+01 0.420E-44
BIGSUB   4        0  197.24323E+02 0.833E+01 0.561E-44
BIGSUB   1        0  198.24954E+02 0.000E+00 0.140E-44
BIGSUB   2        0  198.29683E+02 0.000E+00 0.280E-44
BIGSUB   3        0  198.13608E+02 0.142E+01 0.420E-44
BIGSUB   4        0  198.24323E+02 0.142E+01 0.561E-44
BIGSUB   1        0  199.24954E+02 0.000E+00 0.140E-44
BIGSUB   2        0  199.29683E+02 0.000E+00 0.280E-44
BIGSUB   3        0  199.13608E+02 0.450E+01 0.420E-44
BIGSUB   4        0  199.24323E+02 0.450E+01 0.561E-44
BIGSUB   1        0  200.24954E+02 0.194E+02 0.140E-44
BIGSUB   2        0  200.29683E+02 0.194E+02 0.280E-44
BIGSUB   3        0  200.13608E+02 0.257E+02 0.420E-44
BIGSUB   4        0  200.24323E+02 0.257E+02 0.561E-44
BIGSUB   1        0  201.24954E+02 0.000E+00 0.140E-44
BIGSUB   2        0  201.29683E+02 0.000E+00 0.280E-44
BIGSUB   3        0  201.13608E+02 0.000E+00 0.420E-44
BIGSUB   4        0  201.24323E+02 0.000E+00 0.561E-44
BIGSUB   1        0  202.24954E+02 0.250E+02 0.140E-44
BIGSUB   2        0  202.29683E+02 0.250E+02 0.280E-44
BIGSUB   3        0  202.13608E+02 0.000E+00 0.420E-44
BIGSUB   4        0  202.24323E+02 0.000E+00 0.561E-44
BIGSUB   1        0  203.24954E+02 0.000E+00 0.140E-44
BIGSUB   2        0  203.29683E+02 0.000E+00 0.280E-44
BIGSUB   3        0  203.13608E+02 0.622E+01 0.420E-44
BIGSUB   4        0  203.24323E+02 0.622E+01 0.561E-44
BIGSUB   1        0  204.24954E+02 0.148E+02 0.140E-44
BIGSUB   2        0  204.29683E+02 0.148E+02 0.280E-44
BIGSUB   3        0  204.13608E+02 0.327E+02 0.420E-44
BIGSUB   4        0  204.24323E+02 0.327E+02 0.561E-44
BIGSUB   1        0  205.24954E+02 0.000E+00 0.140E-44
BIGSUB   2        0  205.29683E+02 0.000E+00 0.280E-44
BIGSUB   3        0  205.13608E+02 0.000E+00 0.420E-44
BIGSUB   4        0  205.24323E+02 0.000E+00 0.561E-44
BIGSUB   1        0  206.24954E+02 0.000E+00 0.140E-44
BIGSUB   2        0  206.29683E+02 0.000E+00 0.280E-44
BIGSUB   3        0  206.13608E+02 0.000E+00 0.420E-44
BIGSUB   4        0  206.24323E+02 0.000E+00 0.561E-44
BIGSUB   1        0  207.24954E+02 0.000E+00 0.140E-44
BIGSUB   2        0  207.29683E+02 0.000E+00 0.280E-44
BIGSUB   3        0  207.13608E+02 0.000E+00 0.420E-44
BIGSUB   4        0  207.24323E+02 0.000E+00 0.561E-44
BIGSUB   1        0  208.24954E+02 0.000E+00 0.140E-44
BIGSUB   2        0  208.29683E+02 0.000E+00 0.280E-44
BIGSUB   3        0  208.13608E+02 0.689E+02 0.420E-44
BIGSUB   4        0  208.24323E+02 0.689E+02 0.561E-44
BIGSUB   1        0  209.24954E+02 0.753E+01 0.140E-44
BIGSUB   2        0  209.29683E+02 0.753E+01 0.280E-44
BIGSUB   3        0  209.13608E+02 0.000E+00 0.420E-44
BIGSUB   4        0  209.24323E+02 0.000E+00 0.561E-44
BIGSUB   1        0  210.24954E+02 0.561E+01 0.140E-44
BIGSUB   2        0  210.29683E+02 0.561E+01 0.280E-44
BIGSUB   3        0  210.13608E+02 0.000E+00 0.420E-44
BIGSUB   4        0  210.24323E+02 0.000E+00 0.561E-44
BIGSUB   1        0  211.24954E+02 0.194E+01 0.140E-44
BIGSUB   2        0  211.29683E+02 0.194E+01 0.280E-44
BIGSUB   3        0  211.13608E+02 0.368E+01 0.420E-44
BIGSUB   4        0  211.24323E+02 0.368E+01 0.561E-44
BIGSUB   1        0  212.24954E+02 0.822E+01 0.140E-44
BIGSUB   2        0  212.29683E+02 0.822E+01 0.280E-44
BIGSUB   3        0  212.13608E+02 0.155E+02 0.420E-44
BIGSUB   4        0  212.24323E+02 0.155E+02 0.561E-44
BIGSUB   1        0  213.24954E+02 0.340E+02 0.140E-44
BIGSUB   2        0  213.29683E+02 0.340E+02 0.280E-44
BIGSUB   3        0  213.13608E+02 0.375E+01 0.420E-44
BIGSUB   4        0  213.24323E+02 0.375E+01 0.561E-44
BIGSUB   1        0  214.24954E+02 0.000E+00 0.140E-44
BIGSUB   2        0  214.29683E+02 0.000E+00 0.280E-44
BIGSUB   3        0  214.13608E+02 0.220E+01 0.420E-44
BIGSUB   4        0  214.24323E+02 0.220E+01 0.561E-44
BIGSUB   1        0  215.24954E+02 0.868E+01 0.140E-44
BIGSUB   2        0  215.29683E+02 0.868E+01 0.280E-44
BIGSUB   3        0  215.13608E+02 0.216E+01 0.420E-44
BIGSUB   4        0  215.24323E+02 0.216E+01 0.561E-44
BIGSUB   1        0  216.24954E+02 0.308E+01 0.140E-44
BIGSUB   2        0  216.29683E+02 0.308E+01 0.280E-44
BIGSUB   3        0  216.13608E+02 0.270E+01 0.420E-44
BIGSUB   4        0  216.24323E+02 0.270E+01 0.561E-44
BIGSUB   1        0  217.24954E+02 0.743E+01 0.140E-44
BIGSUB   2        0  217.29683E+02 0.743E+01 0.280E-44
BIGSUB   3        0  217.13608E+02 0.000E+00 0.420E-44
BIGSUB   4        0  217.24323E+02 0.000E+00 0.561E-44
BIGSUB   1        0  218.24954E+02 0.000E+00 0.140E-44
BIGSUB   2        0  218.29683E+02 0.000E+00 0.280E-44
BIGSUB   3        0  218.13608E+02 0.000E+00 0.420E-44
BIGSUB   4        0  218.24323E+02 0.000E+00 0.561E-44
BIGSUB   1        0  219.24954E+02 0.218E+01 0.140E-44
BIGSUB   2        0  219.29683E+02 0.218E+01 0.280E-44
BIGSUB   3        0  219.13608E+02 0.404E+01 0.420E-44
BIGSUB   4        0  219.24323E+02 0.404E+01 0.561E-44
BIGSUB   1        0  220.24954E+02 0.243E+02 0.140E-44
BIGSUB   2        0  220.29683E+02 0.243E+02 0.280E-44
BIGSUB   3        0  220.13608E+02 0.409E+01 0.420E-44
BIGSUB   4        0  220.24323E+02 0.409E+01 0.561E-44
BIGSUB   1        0  221.24954E+02 0.000E+00 0.140E-44
BIGSUB   2        0  221.29683E+02 0.000E+00 0.280E-44
BIGSUB   3        0  221.13608E+02 0.173E+01 0.420E-44
BIGSUB   4        0  221.24323E+02 0.173E+01 0.561E-44
BIGSUB   1        0  222.24954E+02 0.000E+00 0.140E-44
BIGSUB   2        0  222.29683E+02 0.000E+00 0.280E-44
BIGSUB   3        0  222.13608E+02 0.000E+00 0.420E-44
BIGSUB   4        0  222.24323E+02 0.000E+00 0.561E-44
BIGSUB   1        0  223.24954E+02 0.000E+00 0.140E-44
BIGSUB   2        0  223.29683E+02 0.000E+00 0.280E-44
BIGSUB   3        0  223.13608E+02 0.000E+00 0.420E-44
BIGSUB   4        0  223.24323E+02 0.000E+00 0.561E-44
BIGSUB   1        0  224.24954E+02 0.000E+00 0.140E-44
BIGSUB   2        0  224.29683E+02 0.000E+00 0.280E-44
BIGSUB   3        0  224.13608E+02 0.000E+00 0.420E-44
BIGSUB   4        0  224.24323E+02 0.000E+00 0.561E-44
BIGSUB   1        0  225.24954E+02 0.238E+02 0.140E-44
BIGSUB   2        0  225.29683E+02 0.238E+02 0.280E-44
BIGSUB   3        0  225.13608E+02 0.000E+00 0.420E-44
BIGSUB   4        0  225.24323E+02 0.000E+00 0.561E-44
BIGSUB   1        0  226.24954E+02 0.138E+02 0.140E-44
BIGSUB   2        0  226.29683E+02 0.138E+02 0.280E-44
BIGSUB   3        0  226.13608E+02 0.917E+01 0.420E-44
BIGSUB   4        0  226.24323E+02 0.917E+01 0.561E-44
BIGSUB   1        0  227.24954E+02 0.133E+02 0.140E-44
BIGSUB   2        0  227.29683E+02 0.133E+02 0.280E-44
BIGSUB   3        0  227.13608E+02 0.225E+02 0.420E-44
BIGSUB   4        0  227.24323E+02 0.225E+02 0.561E-44
BIGSUB   1        0  228.24954E+02 0.000E+00 0.140E-44
BIGSUB   2        0  228.29683E+02 0.000E+00 0.280E-44
BIGSUB   3        0  228.13608E+02 0.000E+00 0.420E-44
BIGSUB   4        0  228.24323E+02 0.000E+00 0.561E-44
BIGSUB   1        0  229.24954E+02 0.000E+00 0.140E-44
BIGSUB   2        0  229.29683E+02 0.000E+00 0.280E-44
BIGSUB   3        0  229.13608E+02 0.000E+00 0.420E-44
BIGSUB   4        0  229.24323E+02 0.000E+00 0.561E-44
BIGSUB   1        0  230.24954E+02 0.000E+00 0.140E-44
BIGSUB   2        0  230.29683E+02 0.000E+00 0.280E-44
BIGSUB   3        0  230.13608E+02 0.000E+00 0.420E-44
BIGSUB   4        0  230.24323E+02 0.000E+00 0.561E-44
BIGSUB   1        0  231.24954E+02 0.000E+00 0.140E-44
BIGSUB   2        0  231.29683E+02 0.000E+00 0.280E-44
BIGSUB   3        0  231.13608E+02 0.000E+00 0.420E-44
BIGSUB   4        0  231.24323E+02 0.000E+00 0.561E-44
BIGSUB   1        0  232.24954E+02 0.000E+00 0.140E-44
BIGSUB   2        0  232.29683E+02 0.000E+00 0.280E-44
BIGSUB   3        0  232.13608E+02 0.000E+00 0.420E-44
BIGSUB   4        0  232.24323E+02 0.000E+00 0.561E-44
BIGSUB   1        0  233.24954E+02 0.428E+02 0.140E-44
BIGSUB   2        0  233.29683E+02 0.428E+02 0.280E-44
BIGSUB   3        0  233.13608E+02 0.922E+01 0.420E-44
BIGSUB   4        0  233.24323E+02 0.922E+01 0.561E-44
BIGSUB   1        0  234.24954E+02 0.616E+00 0.140E-44
BIGSUB   2        0  234.29683E+02 0.616E+00 0.280E-44
BIGSUB   3        0  234.13608E+02 0.274E+01 0.420E-44
BIGSUB   4        0  234.24323E+02 0.274E+01 0.561E-44
BIGSUB   1        0  235.24954E+02 0.000E+00 0.140E-44
BIGSUB   2        0  235.29683E+02 0.000E+00 0.280E-44
BIGSUB   3        0  235.13608E+02 0.000E+00 0.420E-44
BIGSUB   4        0  235.24323E+02 0.000E+00 0.561E-44
BIGSUB   1        0  236.24954E+02 0.682E+01 0.140E-44
BIGSUB   2        0  236.29683E+02 0.682E+01 0.280E-44
BIGSUB   3        0  236.13608E+02 0.000E+00 0.420E-44
BIGSUB   4        0  236.24323E+02 0.000E+00 0.561E-44
BIGSUB   1        0  237.24954E+02 0.000E+00 0.140E-44
BIGSUB   2        0  237.29683E+02 0.000E+00 0.280E-44
BIGSUB   3        0  237.13608E+02 0.157E+02 0.420E-44
BIGSUB   4        0  237.24323E+02 0.157E+02 0.561E-44
BIGSUB   1        0  238.24954E+02 0.000E+00 0.140E-44
BIGSUB   2        0  238.29683E+02 0.000E+00 0.280E-44
BIGSUB   3        0  238.13608E+02 0.000E+00 0.420E-44
BIGSUB   4        0  238.24323E+02 0.000E+00 0.561E-44
BIGSUB   1        0  239.24954E+02 0.102E+00 0.140E-44
BIGSUB   2        0  239.29683E+02 0.102E+00 0.280E-44
BIGSUB   3        0  239.13608E+02 0.000E+00 0.420E-44
BIGSUB   4        0  239.24323E+02 0.000E+00 0.561E-44
BIGSUB   1        0  240.24954E+02 0.162E+00 0.140E-44
BIGSUB   2        0  240.29683E+02 0.162E+00 0.280E-44
BIGSUB   3        0  240.13608E+02 0.000E+00 0.420E-44
BIGSUB   4        0  240.24323E+02 0.000E+00 0.561E-44
BIGSUB   1        0  241.24954E+02 0.000E+00 0.140E-44
BIGSUB   2        0  241.29683E+02 0.000E+00 0.280E-44
BIGSUB   3        0  241.13608E+02 0.000E+00 0.420E-44
BIGSUB   4        0  241.24323E+02 0.000E+00 0.561E-44
BIGSUB   1        0  242.24954E+02 0.000E+00 0.140E-44
BIGSUB   2        0  242.29683E+02 0.000E+00 0.280E-44
BIGSUB   3        0  242.13608E+02 0.177E+01 0.420E-44
BIGSUB   4        0  242.24323E+02 0.177E+01 0.561E-44
BIGSUB   1        0  243.24954E+02 0.000E+00 0.140E-44
BIGSUB   2        0  243.29683E+02 0.000E+00 0.280E-44
BIGSUB   3        0  243.13608E+02 0.219E+01 0.420E-44
BIGSUB   4        0  243.24323E+02 0.219E+01 0.561E-44
BIGSUB   1        0  244.24954E+02 0.643E+01 0.140E-44
BIGSUB   2        0  244.29683E+02 0.643E+01 0.280E-44
BIGSUB   3        0  244.13608E+02 0.000E+00 0.420E-44
BIGSUB   4        0  244.24323E+02 0.000E+00 0.561E-44
BIGSUB   1        0  245.24954E+02 0.000E+00 0.140E-44
BIGSUB   2        0  245.29683E+02 0.000E+00 0.280E-44
BIGSUB   3        0  245.13608E+02 0.692E+01 0.420E-44
BIGSUB   4        0  245.24323E+02 0.692E+01 0.561E-44
BIGSUB   1        0  246.24954E+02 0.000E+00 0.140E-44
BIGSUB   2        0  246.29683E+02 0.000E+00 0.280E-44
BIGSUB   3        0  246.13608E+02 0.788E+01 0.420E-44
BIGSUB   4        0  246.24323E+02 0.788E+01 0.561E-44
BIGSUB   1        0  247.24954E+02 0.000E+00 0.140E-44
BIGSUB   2        0  247.29683E+02 0.000E+00 0.280E-44
BIGSUB   3        0  247.13608E+02 0.000E+00 0.420E-44
BIGSUB   4        0  247.24323E+02 0.000E+00 0.561E-44
BIGSUB   1        0  248.24954E+02 0.000E+00 0.140E-44
BIGSUB   2        0  248.29683E+02 0.000E+00 0.280E-44
BIGSUB   3        0  248.13608E+02 0.000E+00 0.420E-44
BIGSUB   4        0  248.24323E+02 0.000E+00 0.561E-44
BIGSUB   1        0  249.24954E+02 0.000E+00 0.140E-44
BIGSUB   2        0  249.29683E+02 0.000E+00 0.280E-44
BIGSUB   3        0  249.13608E+02 0.000E+00 0.420E-44
BIGSUB   4        0  249.24323E+02 0.000E+00 0.561E-44
BIGSUB   1        0  250.24954E+02 0.000E+00 0.140E-44
BIGSUB   2        0  250.29683E+02 0.000E+00 0.280E-44
BIGSUB   3        0  250.13608E+02 0.000E+00 0.420E-44
BIGSUB   4        0  250.24323E+02 0.000E+00 0.561E-44
BIGSUB   1        0  251.24954E+02 0.339E+01 0.140E-44
BIGSUB   2        0  251.29683E+02 0.339E+01 0.280E-44
BIGSUB   3        0  251.13608E+02 0.000E+00 0.420E-44
BIGSUB   4        0  251.24323E+02 0.000E+00 0.561E-44
BIGSUB   1        0  252.24954E+02 0.294E+01 0.140E-44
BIGSUB   2        0  252.29683E+02 0.294E+01 0.280E-44
BIGSUB   3        0  252.13608E+02 0.000E+00 0.420E-44
BIGSUB   4        0  252.24323E+02 0.000E+00 0.561E-44
BIGSUB   1        0  253.24954E+02 0.000E+00 0.140E-44
BIGSUB   2        0  253.29683E+02 0.000E+00 0.280E-44
BIGSUB   3        0  253.13608E+02 0.000E+00 0.420E-44
BIGSUB   4        0  253.24323E+02 0.000E+00 0.561E-44
BIGSUB   1        0  254.24954E+02 0.000E+00 0.140E-44
BIGSUB   2        0  254.29683E+02 0.000E+00 0.280E-44
BIGSUB   3        0  254.13608E+02 0.000E+00 0.420E-44
BIGSUB   4        0  254.24323E+02 0.000E+00 0.561E-44
BIGSUB   1        0  255.24954E+02 0.338E+01 0.140E-44
BIGSUB   2        0  255.29683E+02 0.338E+01 0.280E-44
BIGSUB   3        0  255.13608E+02 0.000E+00 0.420E-44
BIGSUB   4        0  255.24323E+02 0.000E+00 0.561E-44
BIGSUB   1        0  256.24954E+02 0.000E+00 0.140E-44
BIGSUB   2        0  256.29683E+02 0.000E+00 0.280E-44
BIGSUB   3        0  256.13608E+02 0.102E+00 0.420E-44
BIGSUB   4        0  256.24323E+02 0.102E+00 0.561E-44
BIGSUB   1        0  257.24954E+02 0.621E+01 0.140E-44
BIGSUB   2        0  257.29683E+02 0.621E+01 0.280E-44
BIGSUB   3        0  257.13608E+02 0.542E+01 0.420E-44
BIGSUB   4        0  257.24323E+02 0.542E+01 0.561E-44
BIGSUB   1        0  258.24954E+02 0.417E+01 0.140E-44
BIGSUB   2        0  258.29683E+02 0.417E+01 0.280E-44
BIGSUB   3        0  258.13608E+02 0.495E+01 0.420E-44
BIGSUB   4        0  258.24323E+02 0.495E+01 0.561E-44
BIGSUB   1        0  259.24954E+02 0.349E+01 0.140E-44
BIGSUB   2        0  259.29683E+02 0.349E+01 0.280E-44
BIGSUB   3        0  259.13608E+02 0.000E+00 0.420E-44
BIGSUB   4        0  259.24323E+02 0.000E+00 0.561E-44
BIGSUB   1        0  260.24954E+02 0.393E+01 0.140E-44
BIGSUB   2        0  260.29683E+02 0.393E+01 0.280E-44
BIGSUB   3        0  260.13608E+02 0.000E+00 0.420E-44
BIGSUB   4        0  260.24323E+02 0.000E+00 0.561E-44
BIGSUB   1        0  261.24954E+02 0.341E+01 0.140E-44
BIGSUB   2        0  261.29683E+02 0.341E+01 0.280E-44
BIGSUB   3        0  261.13608E+02 0.456E+01 0.420E-44
BIGSUB   4        0  261.24323E+02 0.456E+01 0.561E-44
BIGSUB   1        0  262.24954E+02 0.231E+02 0.140E-44
BIGSUB   2        0  262.29683E+02 0.231E+02 0.280E-44
BIGSUB   3        0  262.13608E+02 0.000E+00 0.420E-44
BIGSUB   4        0  262.24323E+02 0.000E+00 0.561E-44
BIGSUB   1        0  263.24954E+02 0.000E+00 0.140E-44
BIGSUB   2        0  263.29683E+02 0.000E+00 0.280E-44
BIGSUB   3        0  263.13608E+02 0.000E+00 0.420E-44
BIGSUB   4        0  263.24323E+02 0.000E+00 0.561E-44
BIGSUB   1        0  264.24954E+02 0.000E+00 0.140E-44
BIGSUB   2        0  264.29683E+02 0.000E+00 0.280E-44
BIGSUB   3        0  264.13608E+02 0.000E+00 0.420E-44
BIGSUB   4        0  264.24323E+02 0.000E+00 0.561E-44
BIGSUB   1        0  265.24954E+02 0.000E+00 0.140E-44
BIGSUB   2        0  265.29683E+02 0.000E+00 0.280E-44
BIGSUB   3        0  265.13608E+02 0.000E+00 0.420E-44
BIGSUB   4        0  265.24323E+02 0.000E+00 0.561E-44
BIGSUB   1        0  266.24954E+02 0.000E+00 0.140E-44
BIGSUB   2        0  266.29683E+02 0.000E+00 0.280E-44
BIGSUB   3        0  266.13608E+02 0.000E+00 0.420E-44
BIGSUB   4        0  266.24323E+02 0.000E+00 0.561E-44
BIGSUB   1        0  267.24954E+02 0.000E+00 0.140E-44
BIGSUB   2        0  267.29683E+02 0.000E+00 0.280E-44
BIGSUB   3        0  267.13608E+02 0.000E+00 0.420E-44
BIGSUB   4        0  267.24323E+02 0.000E+00 0.561E-44
BIGSUB   1        0  268.24954E+02 0.000E+00 0.140E-44
BIGSUB   2        0  268.29683E+02 0.000E+00 0.280E-44
BIGSUB   3        0  268.13608E+02 0.496E+01 0.420E-44
BIGSUB   4        0  268.24323E+02 0.496E+01 0.561E-44
BIGSUB   1        0  269.24954E+02 0.000E+00 0.140E-44
BIGSUB   2        0  269.29683E+02 0.000E+00 0.280E-44
BIGSUB   3        0  269.13608E+02 0.487E+01 0.420E-44
BIGSUB   4        0  269.24323E+02 0.487E+01 0.561E-44
BIGSUB   1        0  270.24954E+02 0.000E+00 0.140E-44
BIGSUB   2        0  270.29683E+02 0.000E+00 0.280E-44
BIGSUB   3        0  270.13608E+02 0.000E+00 0.420E-44
BIGSUB   4        0  270.24323E+02 0.000E+00 0.561E-44
BIGSUB   1        0  271.24954E+02 0.000E+00 0.140E-44
BIGSUB   2        0  271.29683E+02 0.000E+00 0.280E-44
BIGSUB   3        0  271.13608E+02 0.000E+00 0.420E-44
BIGSUB   4        0  271.24323E+02 0.000E+00 0.561E-44
BIGSUB   1        0  272.24954E+02 0.000E+00 0.140E-44
BIGSUB   2        0  272.29683E+02 0.000E+00 0.280E-44
BIGSUB   3        0  272.13608E+02 0.000E+00 0.420E-44
BIGSUB   4        0  272.24323E+02 0.000E+00 0.561E-44
BIGSUB   1        0  273.24954E+02 0.000E+00 0.140E-44
BIGSUB   2        0  273.29683E+02 0.000E+00 0.280E-44
BIGSUB   3        0  273.13608E+02 0.000E+00 0.420E-44
BIGSUB   4        0  273.24323E+02 0.000E+00 0.561E-44
BIGSUB   1        0  274.24954E+02 0.000E+00 0.140E-44
BIGSUB   2        0  274.29683E+02 0.000E+00 0.280E-44
BIGSUB   3        0  274.13608E+02 0.000E+00 0.420E-44
BIGSUB   4        0  274.24323E+02 0.000E+00 0.561E-44
BIGSUB   1        0  275.24954E+02 0.000E+00 0.140E-44
BIGSUB   2        0  275.29683E+02 0.000E+00 0.280E-44
BIGSUB   3        0  275.13608E+02 0.000E+00 0.420E-44
BIGSUB   4        0  275.24323E+02 0.000E+00 0.561E-44
BIGSUB   1        0  276.24954E+02 0.781E+01 0.140E-44
BIGSUB   2        0  276.29683E+02 0.781E+01 0.280E-44
BIGSUB   3        0  276.13608E+02 0.000E+00 0.420E-44
BIGSUB   4        0  276.24323E+02 0.000E+00 0.561E-44
BIGSUB   1        0  277.24954E+02 0.000E+00 0.140E-44
BIGSUB   2        0  277.29683E+02 0.000E+00 0.280E-44
BIGSUB   3        0  277.13608E+02 0.249E+02 0.420E-44
BIGSUB   4        0  277.24323E+02 0.249E+02 0.561E-44
BIGSUB   1        0  278.24954E+02 0.230E+02 0.140E-44
BIGSUB   2        0  278.29683E+02 0.230E+02 0.280E-44
BIGSUB   3        0  278.13608E+02 0.000E+00 0.420E-44
BIGSUB   4        0  278.24323E+02 0.000E+00 0.561E-44
BIGSUB   1        0  279.24954E+02 0.000E+00 0.140E-44
BIGSUB   2        0  279.29683E+02 0.000E+00 0.280E-44
BIGSUB   3        0  279.13608E+02 0.000E+00 0.420E-44
BIGSUB   4        0  279.24323E+02 0.000E+00 0.561E-44
BIGSUB   1        0  280.24954E+02 0.000E+00 0.140E-44
BIGSUB   2        0  280.29683E+02 0.000E+00 0.280E-44
BIGSUB   3        0  280.13608E+02 0.102E+00 0.420E-44
BIGSUB   4        0  280.24323E+02 0.102E+00 0.561E-44
BIGSUB   1        0  281.24954E+02 0.000E+00 0.140E-44
BIGSUB   2        0  281.29683E+02 0.000E+00 0.280E-44
BIGSUB   3        0  281.13608E+02 0.555E+01 0.420E-44
BIGSUB   4        0  281.24323E+02 0.555E+01 0.561E-44
BIGSUB   1        0  282.24954E+02 0.000E+00 0.140E-44
BIGSUB   2        0  282.29683E+02 0.000E+00 0.280E-44
BIGSUB   3        0  282.13608E+02 0.603E+01 0.420E-44
BIGSUB   4        0  282.24323E+02 0.603E+01 0.561E-44
BIGSUB   1        0  283.24954E+02 0.000E+00 0.140E-44
BIGSUB   2        0  283.29683E+02 0.000E+00 0.280E-44
BIGSUB   3        0  283.13608E+02 0.265E+02 0.420E-44
BIGSUB   4        0  283.24323E+02 0.265E+02 0.561E-44
BIGSUB   1        0  284.24954E+02 0.000E+00 0.140E-44
BIGSUB   2        0  284.29683E+02 0.000E+00 0.280E-44
BIGSUB   3        0  284.13608E+02 0.850E+01 0.420E-44
BIGSUB   4        0  284.24323E+02 0.850E+01 0.561E-44
BIGSUB   1        0  285.24954E+02 0.219E+01 0.140E-44
BIGSUB   2        0  285.29683E+02 0.219E+01 0.280E-44
BIGSUB   3        0  285.13608E+02 0.462E+01 0.420E-44
BIGSUB   4        0  285.24323E+02 0.462E+01 0.561E-44
BIGSUB   1        0  286.24954E+02 0.000E+00 0.140E-44
BIGSUB   2        0  286.29683E+02 0.000E+00 0.280E-44
BIGSUB   3        0  286.13608E+02 0.000E+00 0.420E-44
BIGSUB   4        0  286.24323E+02 0.000E+00 0.561E-44
BIGSUB   1        0  287.24954E+02 0.489E+01 0.140E-44
BIGSUB   2        0  287.29683E+02 0.489E+01 0.280E-44
BIGSUB   3        0  287.13608E+02 0.203E+02 0.420E-44
BIGSUB   4        0  287.24323E+02 0.203E+02 0.561E-44
BIGSUB   1        0  288.24954E+02 0.000E+00 0.140E-44
BIGSUB   2        0  288.29683E+02 0.000E+00 0.280E-44
BIGSUB   3        0  288.13608E+02 0.218E+02 0.420E-44
BIGSUB   4        0  288.24323E+02 0.218E+02 0.561E-44
BIGSUB   1        0  289.24954E+02 0.000E+00 0.140E-44
BIGSUB   2        0  289.29683E+02 0.000E+00 0.280E-44
BIGSUB   3        0  289.13608E+02 0.102E+00 0.420E-44
BIGSUB   4        0  289.24323E+02 0.102E+00 0.561E-44
BIGSUB   1        0  290.24954E+02 0.000E+00 0.140E-44
BIGSUB   2        0  290.29683E+02 0.000E+00 0.280E-44
BIGSUB   3        0  290.13608E+02 0.000E+00 0.420E-44
BIGSUB   4        0  290.24323E+02 0.000E+00 0.561E-44
BIGSUB   1        0  291.24954E+02 0.000E+00 0.140E-44
BIGSUB   2        0  291.29683E+02 0.000E+00 0.280E-44
BIGSUB   3        0  291.13608E+02 0.000E+00 0.420E-44
BIGSUB   4        0  291.24323E+02 0.000E+00 0.561E-44
BIGSUB   1        0  292.24954E+02 0.000E+00 0.140E-44
BIGSUB   2        0  292.29683E+02 0.000E+00 0.280E-44
BIGSUB   3        0  292.13608E+02 0.102E+00 0.420E-44
BIGSUB   4        0  292.24323E+02 0.102E+00 0.561E-44
BIGSUB   1        0  293.24954E+02 0.000E+00 0.140E-44
BIGSUB   2        0  293.29683E+02 0.000E+00 0.280E-44
BIGSUB   3        0  293.13608E+02 0.262E+02 0.420E-44
BIGSUB   4        0  293.24323E+02 0.262E+02 0.561E-44
BIGSUB   1        0  294.24954E+02 0.000E+00 0.140E-44
BIGSUB   2        0  294.29683E+02 0.000E+00 0.280E-44
BIGSUB   3        0  294.13608E+02 0.000E+00 0.420E-44
BIGSUB   4        0  294.24323E+02 0.000E+00 0.561E-44
BIGSUB   1        0  295.24954E+02 0.000E+00 0.140E-44
BIGSUB   2        0  295.29683E+02 0.000E+00 0.280E-44
BIGSUB   3        0  295.13608E+02 0.000E+00 0.420E-44
BIGSUB   4        0  295.24323E+02 0.000E+00 0.561E-44
BIGSUB   1        0  296.24954E+02 0.000E+00 0.140E-44
BIGSUB   2        0  296.29683E+02 0.000E+00 0.280E-44
BIGSUB   3        0  296.13608E+02 0.000E+00 0.420E-44
BIGSUB   4        0  296.24323E+02 0.000E+00 0.561E-44
BIGSUB   1        0  297.24954E+02 0.000E+00 0.140E-44
BIGSUB   2        0  297.29683E+02 0.000E+00 0.280E-44
BIGSUB   3        0  297.13608E+02 0.000E+00 0.420E-44
BIGSUB   4        0  297.24323E+02 0.000E+00 0.561E-44
BIGSUB   1        0  298.24954E+02 0.509E+00 0.140E-44
BIGSUB   2        0  298.29683E+02 0.509E+00 0.280E-44
BIGSUB   3        0  298.13608E+02 0.000E+00 0.420E-44
BIGSUB   4        0  298.24323E+02 0.000E+00 0.561E-44
BIGSUB   1        0  299.24954E+02 0.183E+01 0.140E-44
BIGSUB   2        0  299.29683E+02 0.183E+01 0.280E-44
BIGSUB   3        0  299.13608E+02 0.000E+00 0.420E-44
BIGSUB   4        0  299.24323E+02 0.000E+00 0.561E-44
BIGSUB   1        0  300.24954E+02 0.000E+00 0.140E-44
BIGSUB   2        0  300.29683E+02 0.000E+00 0.280E-44
BIGSUB   3        0  300.13608E+02 0.000E+00 0.420E-44
BIGSUB   4        0  300.24323E+02 0.000E+00 0.561E-44
BIGSUB   1        0  301.24954E+02 0.000E+00 0.140E-44
BIGSUB   2        0  301.29683E+02 0.000E+00 0.280E-44
BIGSUB   3        0  301.13608E+02 0.000E+00 0.420E-44
BIGSUB   4        0  301.24323E+02 0.000E+00 0.561E-44
BIGSUB   1        0  302.24954E+02 0.509E+00 0.140E-44
BIGSUB   2        0  302.29683E+02 0.509E+00 0.280E-44
BIGSUB   3        0  302.13608E+02 0.176E+02 0.420E-44
BIGSUB   4        0  302.24323E+02 0.176E+02 0.561E-44
BIGSUB   1        0  303.24954E+02 0.000E+00 0.140E-44
BIGSUB   2        0  303.29683E+02 0.000E+00 0.280E-44
BIGSUB   3        0  303.13608E+02 0.140E+02 0.420E-44
BIGSUB   4        0  303.24323E+02 0.140E+02 0.561E-44
BIGSUB   1        0  304.24954E+02 0.000E+00 0.140E-44
BIGSUB   2        0  304.29683E+02 0.000E+00 0.280E-44
BIGSUB   3        0  304.13608E+02 0.102E+00 0.420E-44
BIGSUB   4        0  304.24323E+02 0.102E+00 0.561E-44
BIGSUB   1        0  305.24954E+02 0.000E+00 0.140E-44
BIGSUB   2        0  305.29683E+02 0.000E+00 0.280E-44
BIGSUB   3        0  305.13608E+02 0.000E+00 0.420E-44
BIGSUB   4        0  305.24323E+02 0.000E+00 0.561E-44
BIGSUB   1        0  306.24954E+02 0.000E+00 0.140E-44
BIGSUB   2        0  306.29683E+02 0.000E+00 0.280E-44
BIGSUB   3        0  306.13608E+02 0.000E+00 0.420E-44
BIGSUB   4        0  306.24323E+02 0.000E+00 0.561E-44
BIGSUB   1        0  307.24954E+02 0.000E+00 0.140E-44
BIGSUB   2        0  307.29683E+02 0.000E+00 0.280E-44
BIGSUB   3        0  307.13608E+02 0.000E+00 0.420E-44
BIGSUB   4        0  307.24323E+02 0.000E+00 0.561E-44
BIGSUB   1        0  308.24954E+02 0.000E+00 0.140E-44
BIGSUB   2        0  308.29683E+02 0.000E+00 0.280E-44
BIGSUB   3        0  308.13608E+02 0.000E+00 0.420E-44
BIGSUB   4        0  308.24323E+02 0.000E+00 0.561E-44
BIGSUB   1        0  309.24954E+02 0.135E+02 0.140E-44
BIGSUB   2        0  309.29683E+02 0.135E+02 0.280E-44
BIGSUB   3        0  309.13608E+02 0.000E+00 0.420E-44
BIGSUB   4        0  309.24323E+02 0.000E+00 0.561E-44
BIGSUB   1        0  310.24954E+02 0.000E+00 0.140E-44
BIGSUB   2        0  310.29683E+02 0.000E+00 0.280E-44
BIGSUB   3        0  310.13608E+02 0.000E+00 0.420E-44
BIGSUB   4        0  310.24323E+02 0.000E+00 0.561E-44
BIGSUB   1        0  311.24954E+02 0.000E+00 0.140E-44
BIGSUB   2        0  311.29683E+02 0.000E+00 0.280E-44
BIGSUB   3        0  311.13608E+02 0.177E+01 0.420E-44
BIGSUB   4        0  311.24323E+02 0.177E+01 0.561E-44
BIGSUB   1        0  312.24954E+02 0.000E+00 0.140E-44
BIGSUB   2        0  312.29683E+02 0.000E+00 0.280E-44
BIGSUB   3        0  312.13608E+02 0.180E+01 0.420E-44
BIGSUB   4        0  312.24323E+02 0.180E+01 0.561E-44
BIGSUB   1        0  313.24954E+02 0.000E+00 0.140E-44
BIGSUB   2        0  313.29683E+02 0.000E+00 0.280E-44
BIGSUB   3        0  313.13608E+02 0.241E+01 0.420E-44
BIGSUB   4        0  313.24323E+02 0.241E+01 0.561E-44
BIGSUB   1        0  314.24954E+02 0.000E+00 0.140E-44
BIGSUB   2        0  314.29683E+02 0.000E+00 0.280E-44
BIGSUB   3        0  314.13608E+02 0.116E+02 0.420E-44
BIGSUB   4        0  314.24323E+02 0.116E+02 0.561E-44
BIGSUB   1        0  315.24954E+02 0.000E+00 0.140E-44
BIGSUB   2        0  315.29683E+02 0.000E+00 0.280E-44
BIGSUB   3        0  315.13608E+02 0.000E+00 0.420E-44
BIGSUB   4        0  315.24323E+02 0.000E+00 0.561E-44
BIGSUB   1        0  316.24954E+02 0.000E+00 0.140E-44
BIGSUB   2        0  316.29683E+02 0.000E+00 0.280E-44
BIGSUB   3        0  316.13608E+02 0.000E+00 0.420E-44
BIGSUB   4        0  316.24323E+02 0.000E+00 0.561E-44
BIGSUB   1        0  317.24954E+02 0.132E+01 0.140E-44
BIGSUB   2        0  317.29683E+02 0.132E+01 0.280E-44
BIGSUB   3        0  317.13608E+02 0.197E+01 0.420E-44
BIGSUB   4        0  317.24323E+02 0.197E+01 0.561E-44
BIGSUB   1        0  318.24954E+02 0.000E+00 0.140E-44
BIGSUB   2        0  318.29683E+02 0.000E+00 0.280E-44
BIGSUB   3        0  318.13608E+02 0.000E+00 0.420E-44
BIGSUB   4        0  318.24323E+02 0.000E+00 0.561E-44
BIGSUB   1        0  319.24954E+02 0.000E+00 0.140E-44
BIGSUB   2        0  319.29683E+02 0.000E+00 0.280E-44
BIGSUB   3        0  319.13608E+02 0.000E+00 0.420E-44
BIGSUB   4        0  319.24323E+02 0.000E+00 0.561E-44
BIGSUB   1        0  320.24954E+02 0.000E+00 0.140E-44
BIGSUB   2        0  320.29683E+02 0.000E+00 0.280E-44
BIGSUB   3        0  320.13608E+02 0.000E+00 0.420E-44
BIGSUB   4        0  320.24323E+02 0.000E+00 0.561E-44
BIGSUB   1        0  321.24954E+02 0.000E+00 0.140E-44
BIGSUB   2        0  321.29683E+02 0.000E+00 0.280E-44
BIGSUB   3        0  321.13608E+02 0.000E+00 0.420E-44
BIGSUB   4        0  321.24323E+02 0.000E+00 0.561E-44
BIGSUB   1        0  322.24954E+02 0.000E+00 0.140E-44
BIGSUB   2        0  322.29683E+02 0.000E+00 0.280E-44
BIGSUB   3        0  322.13608E+02 0.000E+00 0.420E-44
BIGSUB   4        0  322.24323E+02 0.000E+00 0.561E-44
BIGSUB   1        0  323.24954E+02 0.814E+00 0.140E-44
BIGSUB   2        0  323.29683E+02 0.814E+00 0.280E-44
BIGSUB   3        0  323.13608E+02 0.672E+01 0.420E-44
BIGSUB   4        0  323.24323E+02 0.672E+01 0.561E-44
BIGSUB   1        0  324.24954E+02 0.000E+00 0.140E-44
BIGSUB   2        0  324.29683E+02 0.000E+00 0.280E-44
BIGSUB   3        0  324.13608E+02 0.000E+00 0.420E-44
BIGSUB   4        0  324.24323E+02 0.000E+00 0.561E-44
BIGSUB   1        0  325.24954E+02 0.000E+00 0.140E-44
BIGSUB   2        0  325.29683E+02 0.000E+00 0.280E-44
BIGSUB   3        0  325.13608E+02 0.000E+00 0.420E-44
BIGSUB   4        0  325.24323E+02 0.000E+00 0.561E-44
BIGSUB   1        0  326.24954E+02 0.000E+00 0.140E-44
BIGSUB   2        0  326.29683E+02 0.000E+00 0.280E-44
BIGSUB   3        0  326.13608E+02 0.000E+00 0.420E-44
BIGSUB   4        0  326.24323E+02 0.000E+00 0.561E-44
BIGSUB   1        0  327.24954E+02 0.000E+00 0.140E-44
BIGSUB   2        0  327.29683E+02 0.000E+00 0.280E-44
BIGSUB   3        0  327.13608E+02 0.000E+00 0.420E-44
BIGSUB   4        0  327.24323E+02 0.000E+00 0.561E-44
BIGSUB   1        0  328.24954E+02 0.000E+00 0.140E-44
BIGSUB   2        0  328.29683E+02 0.000E+00 0.280E-44
BIGSUB   3        0  328.13608E+02 0.229E+02 0.420E-44
BIGSUB   4        0  328.24323E+02 0.229E+02 0.561E-44
BIGSUB   1        0  329.24954E+02 0.000E+00 0.140E-44
BIGSUB   2        0  329.29683E+02 0.000E+00 0.280E-44
BIGSUB   3        0  329.13608E+02 0.000E+00 0.420E-44
BIGSUB   4        0  329.24323E+02 0.000E+00 0.561E-44
BIGSUB   1        0  330.24954E+02 0.136E+02 0.140E-44
BIGSUB   2        0  330.29683E+02 0.136E+02 0.280E-44
BIGSUB   3        0  330.13608E+02 0.000E+00 0.420E-44
BIGSUB   4        0  330.24323E+02 0.000E+00 0.561E-44
BIGSUB   1        0  331.24954E+02 0.577E+01 0.140E-44
BIGSUB   2        0  331.29683E+02 0.577E+01 0.280E-44
BIGSUB   3        0  331.13608E+02 0.000E+00 0.420E-44
BIGSUB   4        0  331.24323E+02 0.000E+00 0.561E-44
BIGSUB   1        0  332.24954E+02 0.000E+00 0.140E-44
BIGSUB   2        0  332.29683E+02 0.000E+00 0.280E-44
BIGSUB   3        0  332.13608E+02 0.000E+00 0.420E-44
BIGSUB   4        0  332.24323E+02 0.000E+00 0.561E-44
BIGSUB   1        0  333.24954E+02 0.000E+00 0.140E-44
BIGSUB   2        0  333.29683E+02 0.000E+00 0.280E-44
BIGSUB   3        0  333.13608E+02 0.000E+00 0.420E-44
BIGSUB   4        0  333.24323E+02 0.000E+00 0.561E-44
BIGSUB   1        0  334.24954E+02 0.000E+00 0.140E-44
BIGSUB   2        0  334.29683E+02 0.000E+00 0.280E-44
BIGSUB   3        0  334.13608E+02 0.000E+00 0.420E-44
BIGSUB   4        0  334.24323E+02 0.000E+00 0.561E-44
BIGSUB   1        0  335.24954E+02 0.000E+00 0.140E-44
BIGSUB   2        0  335.29683E+02 0.000E+00 0.280E-44
BIGSUB   3        0  335.13608E+02 0.000E+00 0.420E-44
BIGSUB   4        0  335.24323E+02 0.000E+00 0.561E-44
BIGSUB   1        0  336.24954E+02 0.000E+00 0.140E-44
BIGSUB   2        0  336.29683E+02 0.000E+00 0.280E-44
BIGSUB   3        0  336.13608E+02 0.000E+00 0.420E-44
BIGSUB   4        0  336.24323E+02 0.000E+00 0.561E-44
BIGSUB   1        0  337.24954E+02 0.814E+00 0.140E-44
BIGSUB   2        0  337.29683E+02 0.814E+00 0.280E-44
BIGSUB   3        0  337.13608E+02 0.000E+00 0.420E-44
BIGSUB   4        0  337.24323E+02 0.000E+00 0.561E-44
BIGSUB   1        0  338.24954E+02 0.000E+00 0.140E-44
BIGSUB   2        0  338.29683E+02 0.000E+00 0.280E-44
BIGSUB   3        0  338.13608E+02 0.000E+00 0.420E-44
BIGSUB   4        0  338.24323E+02 0.000E+00 0.561E-44
BIGSUB   1        0  339.24954E+02 0.000E+00 0.140E-44
BIGSUB   2        0  339.29683E+02 0.000E+00 0.280E-44
BIGSUB   3        0  339.13608E+02 0.000E+00 0.420E-44
BIGSUB   4        0  339.24323E+02 0.000E+00 0.561E-44
BIGSUB   1        0  340.24954E+02 0.000E+00 0.140E-44
BIGSUB   2        0  340.29683E+02 0.000E+00 0.280E-44
BIGSUB   3        0  340.13608E+02 0.000E+00 0.420E-44
BIGSUB   4        0  340.24323E+02 0.000E+00 0.561E-44
BIGSUB   1        0  341.24954E+02 0.000E+00 0.140E-44
BIGSUB   2        0  341.29683E+02 0.000E+00 0.280E-44
BIGSUB   3        0  341.13608E+02 0.578E+01 0.420E-44
BIGSUB   4        0  341.24323E+02 0.578E+01 0.561E-44
BIGSUB   1        0  342.24954E+02 0.000E+00 0.140E-44
BIGSUB   2        0  342.29683E+02 0.000E+00 0.280E-44
BIGSUB   3        0  342.13608E+02 0.236E+02 0.420E-44
BIGSUB   4        0  342.24323E+02 0.236E+02 0.561E-44
BIGSUB   1        0  343.24954E+02 0.000E+00 0.140E-44
BIGSUB   2        0  343.29683E+02 0.000E+00 0.280E-44
BIGSUB   3        0  343.13608E+02 0.131E+02 0.420E-44
BIGSUB   4        0  343.24323E+02 0.131E+02 0.561E-44
BIGSUB   1        0  344.24954E+02 0.438E+01 0.140E-44
BIGSUB   2        0  344.29683E+02 0.438E+01 0.280E-44
BIGSUB   3        0  344.13608E+02 0.509E+00 0.420E-44
BIGSUB   4        0  344.24323E+02 0.509E+00 0.561E-44
BIGSUB   1        0  345.24954E+02 0.293E+01 0.140E-44
BIGSUB   2        0  345.29683E+02 0.293E+01 0.280E-44
BIGSUB   3        0  345.13608E+02 0.000E+00 0.420E-44
BIGSUB   4        0  345.24323E+02 0.000E+00 0.561E-44
BIGSUB   1        0  346.24954E+02 0.000E+00 0.140E-44
BIGSUB   2        0  346.29683E+02 0.000E+00 0.280E-44
BIGSUB   3        0  346.13608E+02 0.000E+00 0.420E-44
BIGSUB   4        0  346.24323E+02 0.000E+00 0.561E-44
BIGSUB   1        0  347.24954E+02 0.000E+00 0.140E-44
BIGSUB   2        0  347.29683E+02 0.000E+00 0.280E-44
BIGSUB   3        0  347.13608E+02 0.167E+01 0.420E-44
BIGSUB   4        0  347.24323E+02 0.167E+01 0.561E-44
BIGSUB   1        0  348.24954E+02 0.000E+00 0.140E-44
BIGSUB   2        0  348.29683E+02 0.000E+00 0.280E-44
BIGSUB   3        0  348.13608E+02 0.117E+01 0.420E-44
BIGSUB   4        0  348.24323E+02 0.117E+01 0.561E-44
BIGSUB   1        0  349.24954E+02 0.000E+00 0.140E-44
BIGSUB   2        0  349.29683E+02 0.000E+00 0.280E-44
BIGSUB   3        0  349.13608E+02 0.234E+01 0.420E-44
BIGSUB   4        0  349.24323E+02 0.234E+01 0.561E-44
BIGSUB   1        0  350.24954E+02 0.000E+00 0.140E-44
BIGSUB   2        0  350.29683E+02 0.000E+00 0.280E-44
BIGSUB   3        0  350.13608E+02 0.000E+00 0.420E-44
BIGSUB   4        0  350.24323E+02 0.000E+00 0.561E-44
BIGSUB   1        0  351.24954E+02 0.000E+00 0.140E-44
BIGSUB   2        0  351.29683E+02 0.000E+00 0.280E-44
BIGSUB   3        0  351.13608E+02 0.000E+00 0.420E-44
BIGSUB   4        0  351.24323E+02 0.000E+00 0.561E-44
BIGSUB   1        0  352.24954E+02 0.000E+00 0.140E-44
BIGSUB   2        0  352.29683E+02 0.000E+00 0.280E-44
BIGSUB   3        0  352.13608E+02 0.000E+00 0.420E-44
BIGSUB   4        0  352.24323E+02 0.000E+00 0.561E-44
BIGSUB   1        0  353.24954E+02 0.000E+00 0.140E-44
BIGSUB   2        0  353.29683E+02 0.000E+00 0.280E-44
BIGSUB   3        0  353.13608E+02 0.537E+01 0.420E-44
BIGSUB   4        0  353.24323E+02 0.537E+01 0.561E-44
BIGSUB   1        0  354.24954E+02 0.262E+01 0.140E-44
BIGSUB   2        0  354.29683E+02 0.262E+01 0.280E-44
BIGSUB   3        0  354.13608E+02 0.360E+00 0.420E-44
BIGSUB   4        0  354.24323E+02 0.360E+00 0.561E-44
BIGSUB   1        0  355.24954E+02 0.204E+02 0.140E-44
BIGSUB   2        0  355.29683E+02 0.204E+02 0.280E-44
BIGSUB   3        0  355.13608E+02 0.000E+00 0.420E-44
BIGSUB   4        0  355.24323E+02 0.000E+00 0.561E-44
BIGSUB   1        0  356.24954E+02 0.000E+00 0.140E-44
BIGSUB   2        0  356.29683E+02 0.000E+00 0.280E-44
BIGSUB   3        0  356.13608E+02 0.000E+00 0.420E-44
BIGSUB   4        0  356.24323E+02 0.000E+00 0.561E-44
BIGSUB   1        0  357.24954E+02 0.000E+00 0.140E-44
BIGSUB   2        0  357.29683E+02 0.000E+00 0.280E-44
BIGSUB   3        0  357.13608E+02 0.000E+00 0.420E-44
BIGSUB   4        0  357.24323E+02 0.000E+00 0.561E-44
BIGSUB   1        0  358.24954E+02 0.000E+00 0.140E-44
BIGSUB   2        0  358.29683E+02 0.000E+00 0.280E-44
BIGSUB   3        0  358.13608E+02 0.000E+00 0.420E-44
BIGSUB   4        0  358.24323E+02 0.000E+00 0.561E-44
BIGSUB   1        0  359.24954E+02 0.000E+00 0.140E-44
BIGSUB   2        0  359.29683E+02 0.000E+00 0.280E-44
BIGSUB   3        0  359.13608E+02 0.149E+02 0.420E-44
BIGSUB   4        0  359.24323E+02 0.149E+02 0.561E-44
BIGSUB   1        0  360.24954E+02 0.934E+01 0.140E-44
BIGSUB   2        0  360.29683E+02 0.934E+01 0.280E-44
BIGSUB   3        0  360.13608E+02 0.425E+01 0.420E-44
BIGSUB   4        0  360.24323E+02 0.425E+01 0.561E-44
BIGSUB   1        0  361.24954E+02 0.744E+00 0.140E-44
BIGSUB   2        0  361.29683E+02 0.744E+00 0.280E-44
BIGSUB   3        0  361.13608E+02 0.112E+02 0.420E-44
BIGSUB   4        0  361.24323E+02 0.112E+02 0.561E-44
BIGSUB   1        0  362.24954E+02 0.000E+00 0.140E-44
BIGSUB   2        0  362.29683E+02 0.000E+00 0.280E-44
[...]
BIGSUB   2        0  275.29683E+02 0.000E+00 0.280E-44
BIGSUB   3        0  275.13608E+02 0.000E+00 0.420E-44
BIGSUB   4        0  275.24323E+02 0.000E+00 0.561E-44
BIGSUB   1        0  276.24954E+02 0.000E+00 0.140E-44
BIGSUB   2        0  276.29683E+02 0.000E+00 0.280E-44
BIGSUB   3        0  276.13608E+02 0.000E+00 0.420E-44
BIGSUB   4        0  276.24323E+02 0.000E+00 0.561E-44
BIGSUB   1        0  277.24954E+02 0.000E+00 0.140E-44
BIGSUB   2        0  277.29683E+02 0.000E+00 0.280E-44
BIGSUB   3        0  277.13608E+02 0.000E+00 0.420E-44
BIGSUB   4        0  277.24323E+02 0.000E+00 0.561E-44
BIGSUB   1        0  278.24954E+02 0.000E+00 0.140E-44
BIGSUB   2        0  278.29683E+02 0.000E+00 0.280E-44
BIGSUB   3        0  278.13608E+02 0.000E+00 0.420E-44
BIGSUB   4        0  278.24323E+02 0.000E+00 0.561E-44
BIGSUB   1        0  279.24954E+02 0.509E+00 0.140E-44
BIGSUB   2        0  279.29683E+02 0.122E+01 0.280E-44
BIGSUB   3        0  279.13608E+02 0.132E+01 0.420E-44
BIGSUB   4        0  279.24323E+02 0.132E+01 0.561E-44
BIGSUB   1        0  280.24954E+02 0.137E+02 0.140E-44
BIGSUB   2        0  280.29683E+02 0.137E+02 0.280E-44
BIGSUB   3        0  280.13608E+02 0.182E+02 0.420E-44
BIGSUB   4        0  280.24323E+02 0.172E+02 0.561E-44
BIGSUB   1        0  281.24954E+02 0.245E+02 0.140E-44
BIGSUB   2        0  281.29683E+02 0.262E+02 0.280E-44
BIGSUB   3        0  281.13608E+02 0.213E+02 0.420E-44
BIGSUB   4        0  281.24323E+02 0.227E+02 0.561E-44
BIGSUB   1        0  282.24954E+02 0.947E+01 0.140E-44
BIGSUB   2        0  282.29683E+02 0.784E+01 0.280E-44
BIGSUB   3        0  282.13608E+02 0.764E+01 0.420E-44
BIGSUB   4        0  282.24323E+02 0.692E+01 0.561E-44
BIGSUB   1        0  283.24954E+02 0.000E+00 0.140E-44
BIGSUB   2        0  283.29683E+02 0.000E+00 0.280E-44
BIGSUB   3        0  283.13608E+02 0.000E+00 0.420E-44
BIGSUB   4        0  283.24323E+02 0.000E+00 0.561E-44
BIGSUB   1        0  284.24954E+02 0.102E+00 0.140E-44
BIGSUB   2        0  284.29683E+02 0.000E+00 0.280E-44
BIGSUB   3        0  284.13608E+02 0.305E+00 0.420E-44
BIGSUB   4        0  284.24323E+02 0.102E+00 0.561E-44
BIGSUB   1        0  285.24954E+02 0.000E+00 0.140E-44
BIGSUB   2        0  285.29683E+02 0.000E+00 0.280E-44
BIGSUB   3        0  285.13608E+02 0.000E+00 0.420E-44
BIGSUB   4        0  285.24323E+02 0.000E+00 0.561E-44
BIGSUB   1        0  286.24954E+02 0.000E+00 0.140E-44
BIGSUB   2        0  286.29683E+02 0.000E+00 0.280E-44
BIGSUB   3        0  286.13608E+02 0.000E+00 0.420E-44
BIGSUB   4        0  286.24323E+02 0.000E+00 0.561E-44
BIGSUB   1        0  287.24954E+02 0.000E+00 0.140E-44
BIGSUB   2        0  287.29683E+02 0.000E+00 0.280E-44
BIGSUB   3        0  287.13608E+02 0.000E+00 0.420E-44
BIGSUB   4        0  287.24323E+02 0.000E+00 0.561E-44
BIGSUB   1        0  288.24954E+02 0.000E+00 0.140E-44
BIGSUB   2        0  288.29683E+02 0.000E+00 0.280E-44
BIGSUB   3        0  288.13608E+02 0.000E+00 0.420E-44
BIGSUB   4        0  288.24323E+02 0.000E+00 0.561E-44
BIGSUB   1        0  289.24954E+02 0.000E+00 0.140E-44
BIGSUB   2        0  289.29683E+02 0.000E+00 0.280E-44
BIGSUB   3        0  289.13608E+02 0.000E+00 0.420E-44
BIGSUB   4        0  289.24323E+02 0.000E+00 0.561E-44
BIGSUB   1        0  290.24954E+02 0.000E+00 0.140E-44
BIGSUB   2        0  290.29683E+02 0.000E+00 0.280E-44
BIGSUB   3        0  290.13608E+02 0.000E+00 0.420E-44
BIGSUB   4        0  290.24323E+02 0.000E+00 0.561E-44
BIGSUB   1        0  291.24954E+02 0.000E+00 0.140E-44
BIGSUB   2        0  291.29683E+02 0.000E+00 0.280E-44
BIGSUB   3        0  291.13608E+02 0.000E+00 0.420E-44
BIGSUB   4        0  291.24323E+02 0.000E+00 0.561E-44
BIGSUB   1        0  292.24954E+02 0.000E+00 0.140E-44
BIGSUB   2        0  292.29683E+02 0.000E+00 0.280E-44
BIGSUB   3        0  292.13608E+02 0.000E+00 0.420E-44
BIGSUB   4        0  292.24323E+02 0.000E+00 0.561E-44
BIGSUB   1        0  293.24954E+02 0.000E+00 0.140E-44
BIGSUB   2        0  293.29683E+02 0.000E+00 0.280E-44
BIGSUB   3        0  293.13608E+02 0.000E+00 0.420E-44
BIGSUB   4        0  293.24323E+02 0.000E+00 0.561E-44
BIGSUB   1        0  294.24954E+02 0.000E+00 0.140E-44
BIGSUB   2        0  294.29683E+02 0.000E+00 0.280E-44
BIGSUB   3        0  294.13608E+02 0.000E+00 0.420E-44
BIGSUB   4        0  294.24323E+02 0.000E+00 0.561E-44
BIGSUB   1        0  295.24954E+02 0.366E+01 0.140E-44
BIGSUB   2        0  295.29683E+02 0.438E+01 0.280E-44
BIGSUB   3        0  295.13608E+02 0.580E+01 0.420E-44
BIGSUB   4        0  295.24323E+02 0.580E+01 0.561E-44
BIGSUB   1        0  296.24954E+02 0.000E+00 0.140E-44
BIGSUB   2        0  296.29683E+02 0.000E+00 0.280E-44
BIGSUB   3        0  296.13608E+02 0.000E+00 0.420E-44
BIGSUB   4        0  296.24323E+02 0.000E+00 0.561E-44
BIGSUB   1        0  297.24954E+02 0.000E+00 0.140E-44
BIGSUB   2        0  297.29683E+02 0.000E+00 0.280E-44
BIGSUB   3        0  297.13608E+02 0.000E+00 0.420E-44
BIGSUB   4        0  297.24323E+02 0.000E+00 0.561E-44
BIGSUB   1        0  298.24954E+02 0.000E+00 0.140E-44
BIGSUB   2        0  298.29683E+02 0.000E+00 0.280E-44
BIGSUB   3        0  298.13608E+02 0.000E+00 0.420E-44
BIGSUB   4        0  298.24323E+02 0.000E+00 0.561E-44
BIGSUB   1        0  299.24954E+02 0.000E+00 0.140E-44
BIGSUB   2        0  299.29683E+02 0.000E+00 0.280E-44
BIGSUB   3        0  299.13608E+02 0.000E+00 0.420E-44
BIGSUB   4        0  299.24323E+02 0.000E+00 0.561E-44
BIGSUB   1        0  300.24954E+02 0.000E+00 0.140E-44
BIGSUB   2        0  300.29683E+02 0.000E+00 0.280E-44
BIGSUB   3        0  300.13608E+02 0.000E+00 0.420E-44
BIGSUB   4        0  300.24323E+02 0.000E+00 0.561E-44
BIGSUB   1        0  301.24954E+02 0.713E+00 0.140E-44
BIGSUB   2        0  301.29683E+02 0.611E+00 0.280E-44
BIGSUB   3        0  301.13608E+02 0.509E+00 0.420E-44
BIGSUB   4        0  301.24323E+02 0.611E+00 0.561E-44
BIGSUB   1        0  302.24954E+02 0.000E+00 0.140E-44
BIGSUB   2        0  302.29683E+02 0.000E+00 0.280E-44
BIGSUB   3        0  302.13608E+02 0.000E+00 0.420E-44
BIGSUB   4        0  302.24323E+02 0.000E+00 0.561E-44
BIGSUB   1        0  303.24954E+02 0.000E+00 0.140E-44
BIGSUB   2        0  303.29683E+02 0.000E+00 0.280E-44
BIGSUB   3        0  303.13608E+02 0.000E+00 0.420E-44
BIGSUB   4        0  303.24323E+02 0.000E+00 0.561E-44
BIGSUB   1        0  304.24954E+02 0.000E+00 0.140E-44
BIGSUB   2        0  304.29683E+02 0.000E+00 0.280E-44
BIGSUB   3        0  304.13608E+02 0.000E+00 0.420E-44
BIGSUB   4        0  304.24323E+02 0.000E+00 0.561E-44
BIGSUB   1        0  305.24954E+02 0.000E+00 0.140E-44
BIGSUB   2        0  305.29683E+02 0.000E+00 0.280E-44
BIGSUB   3        0  305.13608E+02 0.000E+00 0.420E-44
BIGSUB   4        0  305.24323E+02 0.000E+00 0.561E-44
BIGSUB   1        0  306.24954E+02 0.000E+00 0.140E-44
BIGSUB   2        0  306.29683E+02 0.000E+00 0.280E-44
BIGSUB   3        0  306.13608E+02 0.000E+00 0.420E-44
BIGSUB   4        0  306.24323E+02 0.000E+00 0.561E-44
BIGSUB   1        0  307.24954E+02 0.000E+00 0.140E-44
BIGSUB   2        0  307.29683E+02 0.000E+00 0.280E-44
BIGSUB   3        0  307.13608E+02 0.000E+00 0.420E-44
BIGSUB   4        0  307.24323E+02 0.000E+00 0.561E-44
BIGSUB   1        0  308.24954E+02 0.000E+00 0.140E-44
BIGSUB   2        0  308.29683E+02 0.000E+00 0.280E-44
BIGSUB   3        0  308.13608E+02 0.000E+00 0.420E-44
BIGSUB   4        0  308.24323E+02 0.000E+00 0.561E-44
BIGSUB   1        0  309.24954E+02 0.000E+00 0.140E-44
BIGSUB   2        0  309.29683E+02 0.000E+00 0.280E-44
BIGSUB   3        0  309.13608E+02 0.000E+00 0.420E-44
BIGSUB   4        0  309.24323E+02 0.000E+00 0.561E-44
BIGSUB   1        0  310.24954E+02 0.000E+00 0.140E-44
BIGSUB   2        0  310.29683E+02 0.000E+00 0.280E-44
BIGSUB   3        0  310.13608E+02 0.000E+00 0.420E-44
BIGSUB   4        0  310.24323E+02 0.000E+00 0.561E-44
BIGSUB   1        0  311.24954E+02 0.000E+00 0.140E-44
BIGSUB   2        0  311.29683E+02 0.000E+00 0.280E-44
BIGSUB   3        0  311.13608E+02 0.000E+00 0.420E-44
BIGSUB   4        0  311.24323E+02 0.000E+00 0.561E-44
BIGSUB   1        0  312.24954E+02 0.000E+00 0.140E-44
BIGSUB   2        0  312.29683E+02 0.000E+00 0.280E-44
BIGSUB   3        0  312.13608E+02 0.000E+00 0.420E-44
BIGSUB   4        0  312.24323E+02 0.000E+00 0.561E-44
BIGSUB   1        0  313.24954E+02 0.000E+00 0.140E-44
BIGSUB   2        0  313.29683E+02 0.000E+00 0.280E-44
BIGSUB   3        0  313.13608E+02 0.000E+00 0.420E-44
BIGSUB   4        0  313.24323E+02 0.000E+00 0.561E-44
BIGSUB   1        0  314.24954E+02 0.193E+01 0.140E-44
BIGSUB   2        0  314.29683E+02 0.173E+01 0.280E-44
BIGSUB   3        0  314.13608E+02 0.132E+01 0.420E-44
BIGSUB   4        0  314.24323E+02 0.163E+01 0.561E-44
BIGSUB   1        0  315.24954E+02 0.000E+00 0.140E-44
BIGSUB   2        0  315.29683E+02 0.000E+00 0.280E-44
BIGSUB   3        0  315.13608E+02 0.000E+00 0.420E-44
BIGSUB   4        0  315.24323E+02 0.000E+00 0.561E-44
BIGSUB   1        0  316.24954E+02 0.000E+00 0.140E-44
BIGSUB   2        0  316.29683E+02 0.000E+00 0.280E-44
BIGSUB   3        0  316.13608E+02 0.000E+00 0.420E-44
BIGSUB   4        0  316.24323E+02 0.000E+00 0.561E-44
BIGSUB   1        0  317.24954E+02 0.000E+00 0.140E-44
BIGSUB   2        0  317.29683E+02 0.000E+00 0.280E-44
BIGSUB   3        0  317.13608E+02 0.000E+00 0.420E-44
BIGSUB   4        0  317.24323E+02 0.000E+00 0.561E-44
BIGSUB   1        0  318.24954E+02 0.000E+00 0.140E-44
BIGSUB   2        0  318.29683E+02 0.000E+00 0.280E-44
BIGSUB   3        0  318.13608E+02 0.000E+00 0.420E-44
BIGSUB   4        0  318.24323E+02 0.000E+00 0.561E-44
BIGSUB   1        0  319.24954E+02 0.000E+00 0.140E-44
BIGSUB   2        0  319.29683E+02 0.000E+00 0.280E-44
BIGSUB   3        0  319.13608E+02 0.000E+00 0.420E-44
BIGSUB   4        0  319.24323E+02 0.000E+00 0.561E-44
BIGSUB   1        0  320.24954E+02 0.000E+00 0.140E-44
BIGSUB   2        0  320.29683E+02 0.000E+00 0.280E-44
BIGSUB   3        0  320.13608E+02 0.000E+00 0.420E-44
BIGSUB   4        0  320.24323E+02 0.000E+00 0.561E-44
BIGSUB   1        0  321.24954E+02 0.115E+02 0.140E-44
BIGSUB   2        0  321.29683E+02 0.987E+01 0.280E-44
BIGSUB   3        0  321.13608E+02 0.111E+02 0.420E-44
BIGSUB   4        0  321.24323E+02 0.115E+02 0.561E-44
BIGSUB   1        0  322.24954E+02 0.000E+00 0.140E-44
BIGSUB   2        0  322.29683E+02 0.000E+00 0.280E-44
BIGSUB   3        0  322.13608E+02 0.000E+00 0.420E-44
BIGSUB   4        0  322.24323E+02 0.000E+00 0.561E-44
BIGSUB   1        0  323.24954E+02 0.000E+00 0.140E-44
BIGSUB   2        0  323.29683E+02 0.000E+00 0.280E-44
BIGSUB   3        0  323.13608E+02 0.000E+00 0.420E-44
BIGSUB   4        0  323.24323E+02 0.000E+00 0.561E-44
BIGSUB   1        0  324.24954E+02 0.000E+00 0.140E-44
BIGSUB   2        0  324.29683E+02 0.000E+00 0.280E-44
BIGSUB   3        0  324.13608E+02 0.000E+00 0.420E-44
BIGSUB   4        0  324.24323E+02 0.000E+00 0.561E-44
BIGSUB   1        0  325.24954E+02 0.102E+02 0.140E-44
BIGSUB   2        0  325.29683E+02 0.906E+01 0.280E-44
BIGSUB   3        0  325.13608E+02 0.886E+01 0.420E-44
BIGSUB   4        0  325.24323E+02 0.906E+01 0.561E-44
BIGSUB   1        0  326.24954E+02 0.357E+02 0.140E-44
BIGSUB   2        0  326.29683E+02 0.405E+02 0.280E-44
BIGSUB   3        0  326.13608E+02 0.453E+02 0.420E-44
BIGSUB   4        0  326.24323E+02 0.443E+02 0.561E-44
BIGSUB   1        0  327.24954E+02 0.305E+00 0.140E-44
BIGSUB   2        0  327.29683E+02 0.305E+00 0.280E-44
BIGSUB   3        0  327.13608E+02 0.407E+00 0.420E-44
BIGSUB   4        0  327.24323E+02 0.509E+00 0.561E-44
BIGSUB   1        0  328.24954E+02 0.000E+00 0.140E-44
BIGSUB   2        0  328.29683E+02 0.000E+00 0.280E-44
BIGSUB   3        0  328.13608E+02 0.000E+00 0.420E-44
BIGSUB   4        0  328.24323E+02 0.000E+00 0.561E-44
BIGSUB   1        0  329.24954E+02 0.000E+00 0.140E-44
BIGSUB   2        0  329.29683E+02 0.000E+00 0.280E-44
BIGSUB   3        0  329.13608E+02 0.000E+00 0.420E-44
BIGSUB   4        0  329.24323E+02 0.000E+00 0.561E-44
BIGSUB   1        0  330.24954E+02 0.000E+00 0.140E-44
BIGSUB   2        0  330.29683E+02 0.000E+00 0.280E-44
BIGSUB   3        0  330.13608E+02 0.000E+00 0.420E-44
BIGSUB   4        0  330.24323E+02 0.000E+00 0.561E-44
BIGSUB   1        0  331.24954E+02 0.000E+00 0.140E-44
BIGSUB   2        0  331.29683E+02 0.000E+00 0.280E-44
BIGSUB   3        0  331.13608E+02 0.000E+00 0.420E-44
BIGSUB   4        0  331.24323E+02 0.000E+00 0.561E-44
BIGSUB   1        0  332.24954E+02 0.157E+02 0.140E-44
BIGSUB   2        0  332.29683E+02 0.131E+02 0.280E-44
BIGSUB   3        0  332.13608E+02 0.147E+02 0.420E-44
BIGSUB   4        0  332.24323E+02 0.123E+02 0.561E-44
BIGSUB   1        0  333.24954E+02 0.132E+01 0.140E-44
BIGSUB   2        0  333.29683E+02 0.153E+01 0.280E-44
BIGSUB   3        0  333.13608E+02 0.143E+01 0.420E-44
BIGSUB   4        0  333.24323E+02 0.183E+01 0.561E-44
BIGSUB   1        0  334.24954E+02 0.182E+02 0.140E-44
BIGSUB   2        0  334.29683E+02 0.217E+02 0.280E-44
BIGSUB   3        0  334.13608E+02 0.265E+02 0.420E-44
BIGSUB   4        0  334.24323E+02 0.242E+02 0.561E-44
BIGSUB   1        0  335.24954E+02 0.000E+00 0.140E-44
BIGSUB   2        0  335.29683E+02 0.000E+00 0.280E-44
BIGSUB   3        0  335.13608E+02 0.000E+00 0.420E-44
BIGSUB   4        0  335.24323E+02 0.000E+00 0.561E-44
BIGSUB   1        0  336.24954E+02 0.611E+00 0.140E-44
BIGSUB   2        0  336.29683E+02 0.509E+00 0.280E-44
BIGSUB   3        0  336.13608E+02 0.611E+00 0.420E-44
BIGSUB   4        0  336.24323E+02 0.509E+00 0.561E-44
BIGSUB   1        0  337.24954E+02 0.000E+00 0.140E-44
BIGSUB   2        0  337.29683E+02 0.000E+00 0.280E-44
BIGSUB   3        0  337.13608E+02 0.000E+00 0.420E-44
BIGSUB   4        0  337.24323E+02 0.000E+00 0.561E-44
BIGSUB   1        0  338.24954E+02 0.611E+00 0.140E-44
BIGSUB   2        0  338.29683E+02 0.509E+00 0.280E-44
BIGSUB   3        0  338.13608E+02 0.102E+01 0.420E-44
BIGSUB   4        0  338.24323E+02 0.713E+00 0.561E-44
BIGSUB   1        0  339.24954E+02 0.157E+02 0.140E-44
BIGSUB   2        0  339.29683E+02 0.169E+02 0.280E-44
BIGSUB   3        0  339.13608E+02 0.182E+02 0.420E-44
BIGSUB   4        0  339.24323E+02 0.181E+02 0.561E-44
BIGSUB   1        0  340.24954E+02 0.147E+02 0.140E-44
BIGSUB   2        0  340.29683E+02 0.149E+02 0.280E-44
BIGSUB   3        0  340.13608E+02 0.158E+02 0.420E-44
BIGSUB   4        0  340.24323E+02 0.149E+02 0.561E-44
BIGSUB   1        0  341.24954E+02 0.000E+00 0.140E-44
BIGSUB   2        0  341.29683E+02 0.000E+00 0.280E-44
BIGSUB   3        0  341.13608E+02 0.000E+00 0.420E-44
BIGSUB   4        0  341.24323E+02 0.000E+00 0.561E-44
BIGSUB   1        0  342.24954E+02 0.000E+00 0.140E-44
BIGSUB   2        0  342.29683E+02 0.000E+00 0.280E-44
BIGSUB   3        0  342.13608E+02 0.000E+00 0.420E-44
BIGSUB   4        0  342.24323E+02 0.000E+00 0.561E-44
BIGSUB   1        0  343.24954E+02 0.865E+01 0.140E-44
BIGSUB   2        0  343.29683E+02 0.835E+01 0.280E-44
BIGSUB   3        0  343.13608E+02 0.998E+01 0.420E-44
BIGSUB   4        0  343.24323E+02 0.906E+01 0.561E-44
BIGSUB   1        0  344.24954E+02 0.305E+00 0.140E-44
BIGSUB   2        0  344.29683E+02 0.305E+00 0.280E-44
BIGSUB   3        0  344.13608E+02 0.305E+00 0.420E-44
BIGSUB   4        0  344.24323E+02 0.305E+00 0.561E-44
BIGSUB   1        0  345.24954E+02 0.000E+00 0.140E-44
BIGSUB   2        0  345.29683E+02 0.000E+00 0.280E-44
BIGSUB   3        0  345.13608E+02 0.000E+00 0.420E-44
BIGSUB   4        0  345.24323E+02 0.000E+00 0.561E-44
BIGSUB   1        0  346.24954E+02 0.000E+00 0.140E-44
BIGSUB   2        0  346.29683E+02 0.000E+00 0.280E-44
BIGSUB   3        0  346.13608E+02 0.000E+00 0.420E-44
BIGSUB   4        0  346.24323E+02 0.000E+00 0.561E-44
BIGSUB   1        0  347.24954E+02 0.000E+00 0.140E-44
BIGSUB   2        0  347.29683E+02 0.000E+00 0.280E-44
BIGSUB   3        0  347.13608E+02 0.305E+00 0.420E-44
BIGSUB   4        0  347.24323E+02 0.000E+00 0.561E-44
BIGSUB   1        0  348.24954E+02 0.000E+00 0.140E-44
BIGSUB   2        0  348.29683E+02 0.000E+00 0.280E-44
BIGSUB   3        0  348.13608E+02 0.000E+00 0.420E-44
BIGSUB   4        0  348.24323E+02 0.000E+00 0.561E-44
BIGSUB   1        0  349.24954E+02 0.102E+01 0.140E-44
BIGSUB   2        0  349.29683E+02 0.102E+01 0.280E-44
BIGSUB   3        0  349.13608E+02 0.112E+01 0.420E-44
BIGSUB   4        0  349.24323E+02 0.102E+01 0.561E-44
BIGSUB   1        0  350.24954E+02 0.266E+02 0.140E-44
BIGSUB   2        0  350.29683E+02 0.294E+02 0.280E-44
BIGSUB   3        0  350.13608E+02 0.292E+02 0.420E-44
BIGSUB   4        0  350.24323E+02 0.297E+02 0.561E-44
BIGSUB   1        0  351.24954E+02 0.000E+00 0.140E-44
BIGSUB   2        0  351.29683E+02 0.000E+00 0.280E-44
BIGSUB   3        0  351.13608E+02 0.000E+00 0.420E-44
BIGSUB   4        0  351.24323E+02 0.000E+00 0.561E-44
BIGSUB   1        0  352.24954E+02 0.611E+01 0.140E-44
BIGSUB   2        0  352.29683E+02 0.682E+01 0.280E-44
BIGSUB   3        0  352.13608E+02 0.784E+01 0.420E-44
BIGSUB   4        0  352.24323E+02 0.743E+01 0.561E-44
BIGSUB   1        0  353.24954E+02 0.814E+00 0.140E-44
BIGSUB   2        0  353.29683E+02 0.916E+00 0.280E-44
BIGSUB   3        0  353.13608E+02 0.102E+01 0.420E-44
BIGSUB   4        0  353.24323E+02 0.916E+00 0.561E-44
BIGSUB   1        0  354.24954E+02 0.000E+00 0.140E-44
BIGSUB   2        0  354.29683E+02 0.000E+00 0.280E-44
BIGSUB   3        0  354.13608E+02 0.000E+00 0.420E-44
BIGSUB   4        0  354.24323E+02 0.000E+00 0.561E-44
BIGSUB   1        0  355.24954E+02 0.000E+00 0.140E-44
BIGSUB   2        0  355.29683E+02 0.000E+00 0.280E-44
BIGSUB   3        0  355.13608E+02 0.000E+00 0.420E-44
BIGSUB   4        0  355.24323E+02 0.000E+00 0.561E-44
BIGSUB   1        0  356.24954E+02 0.000E+00 0.140E-44
BIGSUB   2        0  356.29683E+02 0.000E+00 0.280E-44
BIGSUB   3        0  356.13608E+02 0.000E+00 0.420E-44
BIGSUB   4        0  356.24323E+02 0.000E+00 0.561E-44
BIGSUB   1        0  357.24954E+02 0.000E+00 0.140E-44
BIGSUB   2        0  357.29683E+02 0.000E+00 0.280E-44
BIGSUB   3        0  357.13608E+02 0.000E+00 0.420E-44
BIGSUB   4        0  357.24323E+02 0.000E+00 0.561E-44
BIGSUB   1        0  358.24954E+02 0.000E+00 0.140E-44
BIGSUB   2        0  358.29683E+02 0.000E+00 0.280E-44
BIGSUB   3        0  358.13608E+02 0.000E+00 0.420E-44
BIGSUB   4        0  358.24323E+02 0.000E+00 0.561E-44
BIGSUB   1        0  359.24954E+02 0.407E+00 0.140E-44
BIGSUB   2        0  359.29683E+02 0.122E+01 0.280E-44
BIGSUB   3        0  359.13608E+02 0.255E+01 0.420E-44
BIGSUB   4        0  359.24323E+02 0.305E+01 0.561E-44
BIGSUB   1        0  360.24954E+02 0.387E+01 0.140E-44
BIGSUB   2        0  360.29683E+02 0.377E+01 0.280E-44
BIGSUB   3        0  360.13608E+02 0.305E+01 0.420E-44
BIGSUB   4        0  360.24323E+02 0.346E+01 0.561E-44
BIGSUB   1        0  361.24954E+02 0.000E+00 0.140E-44
BIGSUB   2        0  361.29683E+02 0.000E+00 0.280E-44
BIGSUB   3        0  361.13608E+02 0.000E+00 0.420E-44
BIGSUB   4        0  361.24323E+02 0.000E+00 0.561E-44
BIGSUB   1        0  362.24954E+02 0.000E+00 0.140E-44
BIGSUB   2        0  362.29683E+02 0.000E+00 0.280E-44
BIGSUB   3        0  362.13608E+02 0.000E+00 0.420E-44
BIGSUB   4        0  362.24323E+02 0.000E+00 0.561E-44
BIGSUB   1        0  363.24954E+02 0.116E+02 0.140E-44
BIGSUB   2        0  363.29683E+02 0.130E+02 0.280E-44
BIGSUB   3        0  363.13608E+02 0.145E+02 0.420E-44
BIGSUB   4        0  363.24323E+02 0.156E+02 0.561E-44
BIGSUB   1        0  364.24954E+02 0.000E+00 0.140E-44
BIGSUB   2        0  364.29683E+02 0.000E+00 0.280E-44
BIGSUB   3        0  364.13608E+02 0.000E+00 0.420E-44
BIGSUB   4        0  364.24323E+02 0.000E+00 0.561E-44
BIGSUB   1        0  365.24954E+02 0.000E+00 0.140E-44
BIGSUB   2        0  365.29683E+02 0.000E+00 0.280E-44
BIGSUB   3        0  365.13608E+02 0.000E+00 0.420E-44
BIGSUB   4        0  365.24323E+02 0.000E+00 0.561E-44
