1
    SWAT Nov 14 2012    VER 2012/Rev 582                                                                 0/ 0/   0      0: 0: 0

    General Input/Output section (file.cio):                                        
    2/7/2013 12:00:00 AM ARCGIS-SWAT interface AV                                   
                                                                                    
         Number of years in run:    6
         Area of watershed:       92.569 km2
         Random number generator cycles: 0, use default numbers

         Initial random number seed: wet/dry day prob        748932582
         Initial random number seed: radiation              1948832765
         Initial random number seed: precipitation           857034417
         Initial random number seed: 0.5 hr rainfall          67377721
         Initial random number seed: wind speed              366304404
         Initial random number seed: irrigation             1094585182
         Initial random number seed: relative humidity      1767585417
         Initial random number seed: max temperature         608439319
         Initial random number seed: min temperature         592757081

         Precipitation data used in run:
          Multiple gages read for watershed
             Daily rainfall data used

         Temperature data used in run:
          Multiple gages read for watershed

         PET method used: Penman-Monteith

         Rainfall/Runoff/Routing Option:
          Daily rainfall data
          Runoff estimated with curve number method
          Daily stream routing
           Variable Storage routing method
           Channel dimensions remain constant
           Subbasin algae/CBOD loadings not modeled
           In-stream nutrient transformations modeled using QUAL2E equations

         Subbasin Input Summary:
          Sub Latitude  Elev(m) #HRUs Ponds Elevbnds Wetlnd
            1    35.75   110.30    13                   
            2    35.75   116.42     8                   
            3    35.75   109.46     9                   
            4    35.75    97.48     9                   

         HRU Input Summary Table 1:
          Sub   HRU   Area(ha) Slope SlpLgth(m) Ovrlnd_N CondII_CN TimeConc(hr) ESCO EPCO
            1      1     197.21 0.035      91.46    0.100     63.29        0.618 0.95 1.00
            1      2     153.63 0.067      60.98    0.100     63.29        0.406 0.95 1.00
            1      3     300.33 0.036      91.46    0.100     63.29        0.633 0.95 1.00
            1      4     419.28 0.071      60.98    0.100     63.29        0.450 0.95 1.00
            1      5     324.69 0.036      91.46    0.100     63.29        0.638 0.95 1.00
            1      6     499.13 0.072      60.98    0.100     63.29        0.463 0.95 1.00
            1      7      45.17 0.067      60.98    0.100     73.82        0.382 0.95 1.00
            1      8      39.60 0.012     121.95    0.100     73.82        0.951 0.95 1.00
            1      9      86.90 0.035      91.46    0.100     73.82        0.595 0.95 1.00
            1     10     163.23 0.071      60.98    0.100     73.82        0.402 0.95 1.00
            1     11     125.99 0.036      91.46    0.100     73.82        0.599 0.95 1.00
            1     12      87.67 0.035      91.46    0.100     73.82        0.596 0.95 1.00
            1     13      97.53 0.069      60.98    0.100     73.82        0.391 0.95 1.00
            2     14    1011.80 0.071      60.98    0.100     63.29        0.530 0.95 1.00
            2     15     690.44 0.036      91.46    0.100     63.29        0.688 0.95 1.00
            2     16      40.67 0.036      91.46    0.100     73.82        0.579 0.95 1.00
            2     17      56.39 0.072      60.98    0.100     73.82        0.375 0.95 1.00
            2     18     283.33 0.036      91.46    0.100     73.82        0.623 0.95 1.00
            2     19     341.36 0.071      60.98    0.100     73.82        0.428 0.95 1.00
            2     20     328.22 0.074      60.98    0.100     66.00        0.421 0.95 1.00
            2     21     269.55 0.135      24.39    0.100     66.00        0.225 0.95 1.00
            3     22     230.65 0.067      60.98    0.100     63.29        0.489 0.95 1.00
            3     23     286.37 0.036      91.46    0.100     63.29        0.713 0.95 1.00
            3     24      70.71 0.068      60.98    0.100     73.82        0.411 0.95 1.00
            3     25     101.49 0.036      91.46    0.100     73.82        0.627 0.95 1.00
            3     26     123.03 0.139      24.39    0.100     66.00        0.240 0.95 1.00
            3     27     161.17 0.073      60.98    0.100     66.00        0.448 0.95 1.00
            3     28     122.54 0.036      91.46    0.100     66.00        0.637 0.95 1.00
            3     29     161.10 0.035      91.46    0.100     55.00        0.661 0.95 1.00
            3     30     128.27 0.067      60.98    0.100     55.00        0.441 0.95 1.00
            4     31     293.91 0.071      60.98    0.100     63.29        0.447 0.95 1.00
            4     32     240.83 0.036      91.46    0.100     63.29        0.639 0.95 1.00
            4     33     281.81 0.132      24.39    0.100     66.00        0.254 0.95 1.00
            4     34     426.82 0.074      60.98    0.100     66.00        0.474 0.95 1.00
            4     35     209.96 0.037      91.46    0.100     66.00        0.626 0.95 1.00
            4     36     233.80 0.037      91.46    0.100     55.00        0.632 0.95 1.00
            4     37     438.84 0.072      60.98    0.100     55.00        0.480 0.95 1.00
            4     38     178.31 0.069      60.98    0.300     59.00        0.763 0.95 1.00
            4     39     171.82 0.036      91.46    0.300     59.00        1.151 0.95 1.00

         HRU CN Input Summary Table:
          Sub   HRU   Area(ha)  LULC      Soil    CN1    CN2    CN3  Wilting Point (mm H2O)  Field Capacity (mm H2O)  Saturation (mm H2O)
            1      1     197.21  BERM  MAYODAN    43.9   63.3   81.0                   273.5                    165.9                422.0
            1      2     153.63  BERM  MAYODAN    43.9   63.3   81.0                   273.5                    165.9                422.0
            1      3     300.33  BERM  HERNDON    43.9   63.3   81.0                   288.6                    288.3                535.2
            1      4     419.28  BERM  HERNDON    43.9   63.3   81.0                   288.6                    288.3                535.2
            1      5     324.69  BERM  HIWASSEE   43.9   63.3   81.0                   412.6                    307.3                420.1
            1      6     499.13  BERM  HIWASSEE   43.9   63.3   81.0                   412.6                    307.3                420.1
            1      7      45.17  BERM  MAYODAN    55.5   73.8   88.0                   273.5                    165.9                422.0
            1      8      39.60  BERM  MAYODAN    55.5   73.8   88.0                   273.5                    165.9                422.0
            1      9      86.90  BERM  MAYODAN    55.5   73.8   88.0                   273.5                    165.9                422.0
            1     10     163.23  BERM  HERNDON    55.5   73.8   88.0                   288.6                    288.3                535.2
            1     11     125.99  BERM  HERNDON    55.5   73.8   88.0                   288.6                    288.3                535.2
            1     12      87.67  BERM  HIWASSEE   55.5   73.8   88.0                   412.6                    307.3                420.1
            1     13      97.53  BERM  HIWASSEE   55.5   73.8   88.0                   412.6                    307.3                420.1
            2     14    1011.80  BERM  HIWASSEE   43.9   63.3   81.0                   412.6                    307.3                420.1
            2     15     690.44  BERM  HIWASSEE   43.9   63.3   81.0                   412.6                    307.3                420.1
            2     16      40.67  BERM  HERNDON    55.5   73.8   88.0                   288.6                    288.3                535.2
            2     17      56.39  BERM  HERNDON    55.5   73.8   88.0                   288.6                    288.3                535.2
            2     18     283.33  BERM  HIWASSEE   55.5   73.8   88.0                   412.6                    307.3                420.1
            2     19     341.36  BERM  HIWASSEE   55.5   73.8   88.0                   412.6                    307.3                420.1
            2     20     328.22  FRSD  HIWASSEE   46.8   66.0   83.0                   412.6                    307.3                420.1
            2     21     269.55  FRSD  HIWASSEE   46.8   66.0   83.0                   412.6                    307.3                420.1
            3     22     230.65  BERM  HIWASSEE   43.9   63.3   81.0                   412.6                    307.3                420.1
            3     23     286.37  BERM  HIWASSEE   43.9   63.3   81.0                   412.6                    307.3                420.1
            3     24      70.71  BERM  HIWASSEE   55.5   73.8   88.0                   412.6                    307.3                420.1
            3     25     101.49  BERM  HIWASSEE   55.5   73.8   88.0                   412.6                    307.3                420.1
            3     26     123.03  FRSD  HIWASSEE   46.8   66.0   83.0                   412.6                    307.3                420.1
            3     27     161.17  FRSD  HIWASSEE   46.8   66.0   83.0                   412.6                    307.3                420.1
            3     28     122.54  FRSD  HIWASSEE   46.8   66.0   83.0                   412.6                    307.3                420.1
            3     29     161.10  FRSE  HIWASSEE   35.3   55.0   74.5                   412.6                    307.3                420.1
            3     30     128.27  FRSE  HIWASSEE   35.3   55.0   74.5                   412.6                    307.3                420.1
            4     31     293.91  BERM  HIWASSEE   43.9   63.3   81.0                   412.6                    307.3                420.1
            4     32     240.83  BERM  HIWASSEE   43.9   63.3   81.0                   412.6                    307.3                420.1
            4     33     281.81  FRSD  HIWASSEE   46.8   66.0   83.0                   412.6                    307.3                420.1
            4     34     426.82  FRSD  HIWASSEE   46.8   66.0   83.0                   412.6                    307.3                420.1
            4     35     209.96  FRSD  HIWASSEE   46.8   66.0   83.0                   412.6                    307.3                420.1
            4     36     233.80  FRSE  HIWASSEE   35.3   55.0   74.5                   412.6                    307.3                420.1
            4     37     438.84  FRSE  HIWASSEE   35.3   55.0   74.5                   412.6                    307.3                420.1
            4     38     178.31  HAY   HIWASSEE   39.4   59.0   77.7                   412.6                    307.3                420.1
            4     39     171.82  HAY   HIWASSEE   39.4   59.0   77.7                   412.6                    307.3                420.1

         HRU Input Summary Table 2:
          Sub   HRU   Area(ha)         SoilName Hydgrp MaxRtDpth(mm) Albedo USLE_K USLE_P USLE_LS ProfileAWC(mm) IniSoilH2O(mm)
            1      1     197.21 MAYODAN            B          1524.00   0.10   0.24   1.00    0.56    165.862        100.334
            1      2     153.63 MAYODAN            B          1524.00   0.10   0.24   1.00    1.15    165.862        100.334
            1      3     300.33 HERNDON            B          1727.20   0.10   0.43   1.00    0.58    288.290        174.394
            1      4     419.28 HERNDON            B          1727.20   0.10   0.43   1.00    1.25    288.290        174.394
            1      5     324.69 HIWASSEE           B          1778.00   0.10   0.28   1.00    0.58    307.340        185.918
            1      6     499.13 HIWASSEE           B          1778.00   0.10   0.28   1.00    1.28    307.340        185.918
            1      7      45.17 MAYODAN            B          1524.00   0.10   0.24   1.00    1.15    165.862        100.334
            1      8      39.60 MAYODAN            B          1524.00   0.10   0.24   1.00    0.18    165.862        100.334
            1      9      86.90 MAYODAN            B          1524.00   0.10   0.24   1.00    0.56    165.862        100.334
            1     10     163.23 HERNDON            B          1727.20   0.10   0.43   1.00    1.25    288.290        174.394
            1     11     125.99 HERNDON            B          1727.20   0.10   0.43   1.00    0.58    288.290        174.394
            1     12      87.67 HIWASSEE           B          1778.00   0.10   0.28   1.00    0.56    307.340        185.918
            1     13      97.53 HIWASSEE           B          1778.00   0.10   0.28   1.00    1.20    307.340        185.918
            2     14    1011.80 HIWASSEE           B          1778.00   0.10   0.28   1.00    1.25    307.340        185.918
            2     15     690.44 HIWASSEE           B          1778.00   0.10   0.28   1.00    0.58    307.340        185.918
            2     16      40.67 HERNDON            B          1727.20   0.10   0.43   1.00    0.58    288.290        174.394
            2     17      56.39 HERNDON            B          1727.20   0.10   0.43   1.00    1.28    288.290        174.394
            2     18     283.33 HIWASSEE           B          1778.00   0.10   0.28   1.00    0.58    307.340        185.918
            2     19     341.36 HIWASSEE           B          1778.00   0.10   0.28   1.00    1.25    307.340        185.918
            2     20     328.22 HIWASSEE           B          1778.00   0.10   0.28   1.00    1.33    307.340        185.918
            2     21     269.55 HIWASSEE           B          1778.00   0.10   0.28   1.00    1.96    307.340        185.918
            3     22     230.65 HIWASSEE           B          1778.00   0.10   0.28   1.00    1.15    307.340        185.103
            3     23     286.37 HIWASSEE           B          1778.00   0.10   0.28   1.00    0.58    307.340        185.103
            3     24      70.71 HIWASSEE           B          1778.00   0.10   0.28   1.00    1.18    307.340        185.103
            3     25     101.49 HIWASSEE           B          1778.00   0.10   0.28   1.00    0.58    307.340        185.103
            3     26     123.03 HIWASSEE           B          1778.00   0.10   0.28   1.00    2.05    307.340        185.103
            3     27     161.17 HIWASSEE           B          1778.00   0.10   0.28   1.00    1.31    307.340        185.103
            3     28     122.54 HIWASSEE           B          1778.00   0.10   0.28   1.00    0.58    307.340        185.103
            3     29     161.10 HIWASSEE           B          1778.00   0.10   0.28   1.00    0.56    307.340        185.103
            3     30     128.27 HIWASSEE           B          1778.00   0.10   0.28   1.00    1.15    307.340        185.103
            4     31     293.91 HIWASSEE           B          1778.00   0.10   0.28   1.00    1.25    307.340        185.103
            4     32     240.83 HIWASSEE           B          1778.00   0.10   0.28   1.00    0.58    307.340        185.103
            4     33     281.81 HIWASSEE           B          1778.00   0.10   0.28   1.00    1.89    307.340        185.103
            4     34     426.82 HIWASSEE           B          1778.00   0.10   0.28   1.00    1.33    307.340        185.103
            4     35     209.96 HIWASSEE           B          1778.00   0.10   0.28   1.00    0.60    307.340        185.103
            4     36     233.80 HIWASSEE           B          1778.00   0.10   0.28   1.00    0.60    307.340        185.103
            4     37     438.84 HIWASSEE           B          1778.00   0.10   0.28   1.00    1.28    307.340        185.103
            4     38     178.31 HIWASSEE           B          1778.00   0.10   0.28   1.00    1.20    307.340        185.103
            4     39     171.82 HIWASSEE           B          1778.00   0.10   0.28   1.00    0.58    307.340        185.103

         HRU Input Summary Table 3:
          Sub   HRU   Area(ha) Urban Irrig DrainTiles Pothole Pstcide Biomix Septic
            1      1     197.21   x                                      0.20 x
            1      2     153.63   x                                      0.20 x
            1      3     300.33   x                                      0.20 x
            1      4     419.28   x                                      0.20 x
            1      5     324.69   x                                      0.20 x
            1      6     499.13   x                                      0.20 x
            1      7      45.17   x                                      0.20 x
            1      8      39.60   x                                      0.20 x
            1      9      86.90   x                                      0.20 x
            1     10     163.23   x                                      0.20 x
            1     11     125.99   x                                      0.20 x
            1     12      87.67   x                                      0.20 x
            1     13      97.53   x                                      0.20 x
            2     14    1011.80   x                                      0.20 x
            2     15     690.44   x                                      0.20 x
            2     16      40.67   x                                      0.20 x
            2     17      56.39   x                                      0.20 x
            2     18     283.33   x                                      0.20 x
            2     19     341.36   x                                      0.20 x
            2     20     328.22                                          0.20 x
            2     21     269.55                                          0.20 x
            3     22     230.65   x                                      0.20 x
            3     23     286.37   x                                      0.20 x
            3     24      70.71   x                                      0.20 x
            3     25     101.49   x                                      0.20 x
            3     26     123.03                                          0.20 x
            3     27     161.17                                          0.20 x
            3     28     122.54                                          0.20 x
            3     29     161.10                                          0.20 x
            3     30     128.27                                          0.20 x
            4     31     293.91   x                                      0.20 x
            4     32     240.83   x                                      0.20 x
            4     33     281.81                                          0.20 x
            4     34     426.82                                          0.20 x
            4     35     209.96                                          0.20 x
            4     36     233.80                                          0.20 x
            4     37     438.84                                          0.20 x
            4     38     178.31                                          0.20 x
            4     39     171.82                                          0.20 x

         HRU Input Summary Table 4 (Groundwater):
          Sub   HRU   Area(ha) GWdelay(days), GWalpha(days) GWQmin(mm) GWrevap Revapmin(mm) Deepfr NO3(ppm) SolP(ppm)
            1      1     197.21        31.000         0.048      0.000   0.020        1.000  0.050    0.000     0.000
            1      2     153.63        31.000         0.048      0.000   0.020        1.000  0.050    0.000     0.000
            1      3     300.33        31.000         0.048      0.000   0.020        1.000  0.050    0.000     0.000
            1      4     419.28        31.000         0.048      0.000   0.020        1.000  0.050    0.000     0.000
            1      5     324.69        31.000         0.048      0.000   0.020        1.000  0.050    0.000     0.000
            1      6     499.13        31.000         0.048      0.000   0.020        1.000  0.050    0.000     0.000
            1      7      45.17        31.000         0.048      0.000   0.020        1.000  0.050    0.000     0.000
            1      8      39.60        31.000         0.048      0.000   0.020        1.000  0.050    0.000     0.000
            1      9      86.90        31.000         0.048      0.000   0.020        1.000  0.050    0.000     0.000
            1     10     163.23        31.000         0.048      0.000   0.020        1.000  0.050    0.000     0.000
            1     11     125.99        31.000         0.048      0.000   0.020        1.000  0.050    0.000     0.000
            1     12      87.67        31.000         0.048      0.000   0.020        1.000  0.050    0.000     0.000
            1     13      97.53        31.000         0.048      0.000   0.020        1.000  0.050    0.000     0.000
            2     14    1011.80        31.000         0.048      0.000   0.020        1.000  0.050    0.000     0.000
            2     15     690.44        31.000         0.048      0.000   0.020        1.000  0.050    0.000     0.000
            2     16      40.67        31.000         0.048      0.000   0.020        1.000  0.050    0.000     0.000
            2     17      56.39        31.000         0.048      0.000   0.020        1.000  0.050    0.000     0.000
            2     18     283.33        31.000         0.048      0.000   0.020        1.000  0.050    0.000     0.000
            2     19     341.36        31.000         0.048      0.000   0.020        1.000  0.050    0.000     0.000
            2     20     328.22        31.000         0.048      0.000   0.020        1.000  0.050    0.000     0.000
            2     21     269.55        31.000         0.048      0.000   0.020        1.000  0.050    0.000     0.000
            3     22     230.65        31.000         0.048      0.000   0.020        1.000  0.050    0.000     0.000
            3     23     286.37        31.000         0.048      0.000   0.020        1.000  0.050    0.000     0.000
            3     24      70.71        31.000         0.048      0.000   0.020        1.000  0.050    0.000     0.000
            3     25     101.49        31.000         0.048      0.000   0.020        1.000  0.050    0.000     0.000
            3     26     123.03        31.000         0.048      0.000   0.020        1.000  0.050    0.000     0.000
            3     27     161.17        31.000         0.048      0.000   0.020        1.000  0.050    0.000     0.000
            3     28     122.54        31.000         0.048      0.000   0.020        1.000  0.050    0.000     0.000
            3     29     161.10        31.000         0.048      0.000   0.020        1.000  0.050    0.000     0.000
            3     30     128.27        31.000         0.048      0.000   0.020        1.000  0.050    0.000     0.000
            4     31     293.91        31.000         0.048      0.000   0.020        1.000  0.050    0.000     0.000
            4     32     240.83        31.000         0.048      0.000   0.020        1.000  0.050    0.000     0.000
            4     33     281.81        31.000         0.048      0.000   0.020        1.000  0.050    0.000     0.000
            4     34     426.82        31.000         0.048      0.000   0.020        1.000  0.050    0.000     0.000
            4     35     209.96        31.000         0.048      0.000   0.020        1.000  0.050    0.000     0.000
            4     36     233.80        31.000         0.048      0.000   0.020        1.000  0.050    0.000     0.000
            4     37     438.84        31.000         0.048      0.000   0.020        1.000  0.050    0.000     0.000
            4     38     178.31        31.000         0.048      0.000   0.020        1.000  0.050    0.000     0.000
            4     39     171.82        31.000         0.048      0.000   0.020        1.000  0.050    0.000     0.000

         Tributary/Main Channel Characteristics
              |--------------Tributary--------------------|---------------------Main---------------------------|
          Sub  Length(km) Slope Width(m) Cond(mm/hr)     N Length(km) Slope Width(m) Depth(m) Cond(mm/hr)     N
            1        8.23 0.055     8.89      0.0000 0.014       0.36 0.008     8.89     0.47      0.0000 0.014
            2        9.09 0.062     9.86      0.0000 0.014       5.46 0.002    14.23     0.64      0.0000 0.014
            3       10.57 0.057     6.18      0.0000 0.014       3.73 0.004     6.18     0.37      0.0000 0.014
            4       10.99 0.062     8.75      0.0000 0.014       6.84 0.002    19.52     0.80      0.0000 0.014
