1
    SWAT Nov 14 2012    VER 2012/Rev 582                                                                 0/ 0/   0      0: 0: 0

    General Input/Output section (file.cio):                                        
    2/7/2013 12:00:00 AM ARCGIS-SWAT interface AV                                   
                                                                                    


LULC  HRU       GIS  SUB  MGT  MON   AREAkm2  PRECIPmm
BERM    1 000010001    1    0    1.19721E+01     0.000
BERM    1 000010001    1    0    2.19721E+01     0.000
BERM    1 000010001    1    0    3.19721E+01     0.000
BERM    1 000010001    1    0    4.19721E+01     0.000
BERM    1 000010001    1    0    5.19721E+01     0.000
BERM    1 000010001    1    0    6.19721E+01     0.000
BERM    1 000010001    1    0    7.19721E+01     0.000
BERM    1 000010001    1    0    8.19721E+01     0.100
BERM    1 000010001    1    0    9.19721E+01     0.000
BERM    1 000010001    1    0   10.19721E+01     0.000
BERM    1 000010001    1    0   11.19721E+01     0.000
BERM    1 000010001    1    0   12.19721E+01     0.000
BERM    1 000010001    1    0   13.19721E+01     0.000
BERM    1 000010001    1    0   14.19721E+01    21.600
BERM    1 000010001    1    0   15.19721E+01    10.900
BERM    1 000010001    1    0   16.19721E+01     0.000
BERM    1 000010001    1    0   17.19721E+01     0.000
BERM    1 000010001    1    0   18.19721E+01     0.000
BERM    1 000010001    1    0   19.19721E+01     0.000
BERM    1 000010001    1    0   20.19721E+01     1.500
BERM    1 000010001    1    0   21.19721E+01     2.600
BERM    1 000010001    1    0   22.19721E+01     0.000
BERM    1 000010001    1    0   23.19721E+01     3.100
BERM    1 000010001    1    0   24.19721E+01     0.000
BERM    1 000010001    1    0   25.19721E+01     0.000
BERM    1 000010001    1    0   26.19721E+01     0.000
BERM    1 000010001    1    0   27.19721E+01     0.000
BERM    1 000010001    1    0   28.19721E+01     0.000
BERM    1 000010001    1    0   29.19721E+01     0.000
BERM    1 000010001    1    0   30.19721E+01    12.300
BERM    1 000010001    1    0   31.19721E+01     0.000
BERM    1 000010001    1    0   32.19721E+01     0.000
BERM    1 000010001    1    0   33.19721E+01     0.000
BERM    1 000010001    1    0   34.19721E+01     1.000
BERM    1 000010001    1    0   35.19721E+01     8.000
BERM    1 000010001    1    0   36.19721E+01     0.000
BERM    1 000010001    1    0   37.19721E+01     0.000
BERM    1 000010001    1    0   38.19721E+01     0.000
BERM    1 000010001    1    0   39.19721E+01     0.000
BERM    1 000010001    1    0   40.19721E+01     0.000
BERM    1 000010001    1    0   41.19721E+01     0.300
BERM    1 000010001    1    0   42.19721E+01     0.000
BERM    1 000010001    1    0   43.19721E+01     0.000
BERM    1 000010001    1    0   44.19721E+01     0.000
BERM    1 000010001    1    0   45.19721E+01     1.000
BERM    1 000010001    1    0   46.19721E+01     1.900
BERM    1 000010001    1    0   47.19721E+01     0.000
BERM    1 000010001    1    0   48.19721E+01     2.700
BERM    1 000010001    1    0   49.19721E+01     0.000
BERM    1 000010001    1    0   50.19721E+01     0.000
BERM    1 000010001    1    0   51.19721E+01     0.000
BERM    1 000010001    1    0   52.19721E+01     2.600
BERM    1 000010001    1    0   53.19721E+01     1.300
BERM    1 000010001    1    0   54.19721E+01     0.000
BERM    1 000010001    1    0   55.19721E+01    10.100
BERM    1 000010001    1    0   56.19721E+01     7.700
BERM    1 000010001    1    0   57.19721E+01     0.000
BERM    1 000010001    1    0   58.19721E+01     0.000
BERM    1 000010001    1    0   59.19721E+01    17.600
BERM    1 000010001    1    0   60.19721E+01     1.400
BERM    1 000010001    1    0   61.19721E+01     0.000
BERM    1 000010001    1    0   62.19721E+01     0.000
BERM    1 000010001    1    0   63.19721E+01     0.000
BERM    1 000010001    1    0   64.19721E+01     0.000
BERM    1 000010001    1    0   65.19721E+01     0.300
BERM    1 000010001    1    0   66.19721E+01     0.000
BERM    1 000010001    1    0   67.19721E+01    12.200
BERM    1 000010001    1    0   68.19721E+01    15.000
BERM    1 000010001    1    0   69.19721E+01     0.000
BERM    1 000010001    1    0   70.19721E+01     0.000
BERM    1 000010001    1    0   71.19721E+01     0.700
BERM    1 000010001    1    0   72.19721E+01     0.000
BERM    1 000010001    1    0   73.19721E+01     8.600
BERM    1 000010001    1    0   74.19721E+01     0.000
BERM    1 000010001    1    0   75.19721E+01     0.000
BERM    1 000010001    1    0   76.19721E+01    28.000
BERM    1 000010001    1    0   77.19721E+01     1.700
BERM    1 000010001    1    0   78.19721E+01     0.000
BERM    1 000010001    1    0   79.19721E+01     0.000
BERM    1 000010001    1    0   80.19721E+01     0.000
BERM    1 000010001    1    0   81.19721E+01     0.000
BERM    1 000010001    1    0   82.19721E+01     5.500
BERM    1 000010001    1    0   83.19721E+01     4.000
BERM    1 000010001    1    0   84.19721E+01     0.000
BERM    1 000010001    1    0   85.19721E+01     0.000
BERM    1 000010001    1    0   86.19721E+01     0.000
BERM    1 000010001    1    0   87.19721E+01     4.800
BERM    1 000010001    1    0   88.19721E+01     6.900
BERM    1 000010001    1    0   89.19721E+01     0.000
BERM    1 000010001    1    0   90.19721E+01     0.000
BERM    1 000010001    1    0   91.19721E+01     2.800
BERM    1 000010001    1    0   92.19721E+01     2.200
BERM    1 000010001    1    0   93.19721E+01    11.200
BERM    1 000010001    1    0   94.19721E+01     0.000
BERM    1 000010001    1    0   95.19721E+01     0.000
BERM    1 000010001    1    0   96.19721E+01     0.000
BERM    1 000010001    1    0   97.19721E+01     0.000
BERM    1 000010001    1    0   98.19721E+01     0.500
BERM    1 000010001    1    0   99.19721E+01    11.500
BERM    1 000010001    1    0  100.19721E+01     0.000
BERM    1 000010001    1    0  101.19721E+01     0.000
BERM    1 000010001    1    0  102.19721E+01     0.000
BERM    1 000010001    1    0  103.19721E+01    15.000
BERM    1 000010001    1    0  104.19721E+01     4.300
BERM    1 000010001    1    0  105.19721E+01     0.000
BERM    1 000010001    1    0  106.19721E+01     0.000
BERM    1 000010001    1    0  107.19721E+01     0.000
BERM    1 000010001    1    0  108.19721E+01     0.000
BERM    1 000010001    1    0  109.19721E+01     0.000
BERM    1 000010001    1    0  110.19721E+01     0.000
BERM    1 000010001    1    0  111.19721E+01     0.000
BERM    1 000010001    1    0  112.19721E+01     0.200
BERM    1 000010001    1    0  113.19721E+01     0.400
BERM    1 000010001    1    0  114.19721E+01     0.000
BERM    1 000010001    1    0  115.19721E+01     0.000
BERM    1 000010001    1    0  116.19721E+01     0.000
BERM    1 000010001    1    0  117.19721E+01     0.200
BERM    1 000010001    1    0  118.19721E+01     0.000
BERM    1 000010001    1    0  119.19721E+01     1.800
BERM    1 000010001    1    0  120.19721E+01     0.500
BERM    1 000010001    1    0  121.19721E+01    12.000
BERM    1 000010001    1    0  122.19721E+01     0.000
BERM    1 000010001    1    0  123.19721E+01     0.000
BERM    1 000010001    1    0  124.19721E+01     0.000
BERM    1 000010001    1    0  125.19721E+01     0.000
BERM    1 000010001    1    0  126.19721E+01    14.000
BERM    1 000010001    1    0  127.19721E+01     1.500
BERM    1 000010001    1    0  128.19721E+01     0.800
BERM    1 000010001    1    0  129.19721E+01     0.000
BERM    1 000010001    1    0  130.19721E+01     0.000
BERM    1 000010001    1    0  131.19721E+01     0.000
BERM    1 000010001    1    0  132.19721E+01     0.000
BERM    1 000010001    1    0  133.19721E+01    21.700
BERM    1 000010001    1    0  134.19721E+01     0.000
BERM    1 000010001    1    0  135.19721E+01     0.000
BERM    1 000010001    1    0  136.19721E+01     3.400
BERM    1 000010001    1    0  137.19721E+01     0.000
BERM    1 000010001    1    0  138.19721E+01     0.000
BERM    1 000010001    1    0  139.19721E+01     1.800
BERM    1 000010001    1    0  140.19721E+01     8.300
BERM    1 000010001    1    0  141.19721E+01     6.100
BERM    1 000010001    1    0  142.19721E+01     0.000
BERM    1 000010001    1    0  143.19721E+01     0.700
BERM    1 000010001    1    0  144.19721E+01     0.300
BERM    1 000010001    1    0  145.19721E+01     0.500
BERM    1 000010001    1    0  146.19721E+01     0.000
BERM    1 000010001    1    0  147.19721E+01     0.000
BERM    1 000010001    1    0  148.19721E+01     0.000
BERM    1 000010001    1    0  149.19721E+01     0.000
BERM    1 000010001    1    0  150.19721E+01     0.000
BERM    1 000010001    1    0  151.19721E+01     0.000
BERM    1 000010001    1    0  152.19721E+01     0.000
BERM    1 000010001    1    0  153.19721E+01     9.500
BERM    1 000010001    1    0  154.19721E+01     4.800
BERM    1 000010001    1    0  155.19721E+01     0.300
BERM    1 000010001    1    0  156.19721E+01     0.000
BERM    1 000010001    1    0  157.19721E+01     1.500
BERM    1 000010001    1    0  158.19721E+01     0.200
BERM    1 000010001    1    0  159.19721E+01    33.700
BERM    1 000010001    1    0  160.19721E+01     0.500
BERM    1 000010001    1    0  161.19721E+01     0.300
BERM    1 000010001    1    0  162.19721E+01     3.600
BERM    1 000010001    1    0  163.19721E+01     0.000
BERM    1 000010001    1    0  164.19721E+01     0.000
BERM    1 000010001    1    0  165.19721E+01     0.500
BERM    1 000010001    1    0  166.19721E+01     0.300
BERM    1 000010001    1    0  167.19721E+01     0.000
BERM    1 000010001    1    0  168.19721E+01     0.000
BERM    1 000010001    1    0  169.19721E+01     0.000
BERM    1 000010001    1    0  170.19721E+01     0.000
BERM    1 000010001    1    0  171.19721E+01     1.800
BERM    1 000010001    1    0  172.19721E+01     0.000
BERM    1 000010001    1    0  173.19721E+01     0.000
BERM    1 000010001    1    0  174.19721E+01     1.400
BERM    1 000010001    1    0  175.19721E+01     0.100
BERM    1 000010001    1    0  176.19721E+01     0.000
BERM    1 000010001    1    0  177.19721E+01     0.000
BERM    1 000010001    1    0  178.19721E+01     0.100
BERM    1 000010001    1    0  179.19721E+01     5.700
BERM    1 000010001    1    0  180.19721E+01     4.800
BERM    1 000010001    1    0  181.19721E+01     0.500
BERM    1 000010001    1    0  182.19721E+01     0.000
BERM    1 000010001    1    0  183.19721E+01     0.100
BERM    1 000010001    1    0  184.19721E+01     0.300
BERM    1 000010001    1    0  185.19721E+01     0.400
BERM    1 000010001    1    0  186.19721E+01     1.100
BERM    1 000010001    1    0  187.19721E+01     4.400
BERM    1 000010001    1    0  188.19721E+01     1.000
BERM    1 000010001    1    0  189.19721E+01    22.700
BERM    1 000010001    1    0  190.19721E+01     0.000
BERM    1 000010001    1    0  191.19721E+01     0.000
BERM    1 000010001    1    0  192.19721E+01     0.000
BERM    1 000010001    1    0  193.19721E+01     0.100
BERM    1 000010001    1    0  194.19721E+01     0.000
BERM    1 000010001    1    0  195.19721E+01     0.700
BERM    1 000010001    1    0  196.19721E+01     0.600
BERM    1 000010001    1    0  197.19721E+01     0.000
BERM    1 000010001    1    0  198.19721E+01     0.000
BERM    1 000010001    1    0  199.19721E+01     0.000
BERM    1 000010001    1    0  200.19721E+01     2.600
BERM    1 000010001    1    0  201.19721E+01    18.700
BERM    1 000010001    1    0  202.19721E+01     0.000
BERM    1 000010001    1    0  203.19721E+01     0.100
BERM    1 000010001    1    0  204.19721E+01    13.000
BERM    1 000010001    1    0  205.19721E+01     0.000
BERM    1 000010001    1    0  206.19721E+01     0.000
BERM    1 000010001    1    0  207.19721E+01     0.000
BERM    1 000010001    1    0  208.19721E+01     0.000
BERM    1 000010001    1    0  209.19721E+01     0.000
BERM    1 000010001    1    0  210.19721E+01    34.200
BERM    1 000010001    1    0  211.19721E+01     1.900
BERM    1 000010001    1    0  212.19721E+01     2.400
BERM    1 000010001    1    0  213.19721E+01     1.400
BERM    1 000010001    1    0  214.19721E+01     0.000
BERM    1 000010001    1    0  215.19721E+01     0.000
BERM    1 000010001    1    0  216.19721E+01     0.300
BERM    1 000010001    1    0  217.19721E+01     0.000
BERM    1 000010001    1    0  218.19721E+01     0.300
BERM    1 000010001    1    0  219.19721E+01     0.000
BERM    1 000010001    1    0  220.19721E+01     0.000
BERM    1 000010001    1    0  221.19721E+01     0.400
BERM    1 000010001    1    0  222.19721E+01    41.000
BERM    1 000010001    1    0  223.19721E+01     1.800
BERM    1 000010001    1    0  224.19721E+01     0.200
BERM    1 000010001    1    0  225.19721E+01     0.000
BERM    1 000010001    1    0  226.19721E+01     0.200
BERM    1 000010001    1    0  227.19721E+01     1.700
BERM    1 000010001    1    0  228.19721E+01     0.000
BERM    1 000010001    1    0  229.19721E+01     5.500
BERM    1 000010001    1    0  230.19721E+01     0.000
BERM    1 000010001    1    0  231.19721E+01     0.500
BERM    1 000010001    1    0  232.19721E+01     0.100
BERM    1 000010001    1    0  233.19721E+01     6.000
BERM    1 000010001    1    0  234.19721E+01     0.000
BERM    1 000010001    1    0  235.19721E+01     4.600
BERM    1 000010001    1    0  236.19721E+01     0.700
BERM    1 000010001    1    0  237.19721E+01     0.200
BERM    1 000010001    1    0  238.19721E+01     0.000
BERM    1 000010001    1    0  239.19721E+01     0.000
BERM    1 000010001    1    0  240.19721E+01     0.000
BERM    1 000010001    1    0  241.19721E+01     0.000
BERM    1 000010001    1    0  242.19721E+01     0.000
BERM    1 000010001    1    0  243.19721E+01     2.100
BERM    1 000010001    1    0  244.19721E+01     0.000
BERM    1 000010001    1    0  245.19721E+01     0.000
BERM    1 000010001    1    0  246.19721E+01     0.000
BERM    1 000010001    1    0  247.19721E+01     0.000
BERM    1 000010001    1    0  248.19721E+01     0.000
BERM    1 000010001    1    0  249.19721E+01     0.000
BERM    1 000010001    1    0  250.19721E+01     0.000
BERM    1 000010001    1    0  251.19721E+01     0.000
BERM    1 000010001    1    0  252.19721E+01     0.000
BERM    1 000010001    1    0  253.19721E+01     0.000
BERM    1 000010001    1    0  254.19721E+01     0.000
BERM    1 000010001    1    0  255.19721E+01     0.000
BERM    1 000010001    1    0  256.19721E+01     0.000
BERM    1 000010001    1    0  257.19721E+01     0.000
BERM    1 000010001    1    0  258.19721E+01     2.400
BERM    1 000010001    1    0  259.19721E+01     0.000
BERM    1 000010001    1    0  260.19721E+01     1.200
BERM    1 000010001    1    0  261.19721E+01     1.400
BERM    1 000010001    1    0  262.19721E+01     0.000
BERM    1 000010001    1    0  263.19721E+01     0.000
BERM    1 000010001    1    0  264.19721E+01    23.800
BERM    1 000010001    1    0  265.19721E+01     0.000
BERM    1 000010001    1    0  266.19721E+01     0.000
BERM    1 000010001    1    0  267.19721E+01     0.000
BERM    1 000010001    1    0  268.19721E+01     0.000
BERM    1 000010001    1    0  269.19721E+01     0.000
BERM    1 000010001    1    0  270.19721E+01     0.700
BERM    1 000010001    1    0  271.19721E+01     0.000
BERM    1 000010001    1    0  272.19721E+01     0.000
BERM    1 000010001    1    0  273.19721E+01     0.000
BERM    1 000010001    1    0  274.19721E+01     0.000
BERM    1 000010001    1    0  275.19721E+01     0.000
BERM    1 000010001    1    0  276.19721E+01     0.000
BERM    1 000010001    1    0  277.19721E+01     0.000
BERM    1 000010001    1    0  278.19721E+01     0.000
BERM    1 000010001    1    0  279.19721E+01     0.500
BERM    1 000010001    1    0  280.19721E+01    13.500
BERM    1 000010001    1    0  281.19721E+01    24.100
BERM    1 000010001    1    0  282.19721E+01     9.300
BERM    1 000010001    1    0  283.19721E+01     0.000
BERM    1 000010001    1    0  284.19721E+01     0.100
BERM    1 000010001    1    0  285.19721E+01     0.000
BERM    1 000010001    1    0  286.19721E+01     0.000
BERM    1 000010001    1    0  287.19721E+01     0.000
BERM    1 000010001    1    0  288.19721E+01     0.000
BERM    1 000010001    1    0  289.19721E+01     0.000
BERM    1 000010001    1    0  290.19721E+01     0.000
BERM    1 000010001    1    0  291.19721E+01     0.000
BERM    1 000010001    1    0  292.19721E+01     0.000
BERM    1 000010001    1    0  293.19721E+01     0.000
BERM    1 000010001    1    0  294.19721E+01     0.000
BERM    1 000010001    1    0  295.19721E+01     3.600
BERM    1 000010001    1    0  296.19721E+01     0.000
BERM    1 000010001    1    0  297.19721E+01     0.000
BERM    1 000010001    1    0  298.19721E+01     0.000
BERM    1 000010001    1    0  299.19721E+01     0.000
BERM    1 000010001    1    0  300.19721E+01     0.000
BERM    1 000010001    1    0  301.19721E+01     0.700
BERM    1 000010001    1    0  302.19721E+01     0.000
BERM    1 000010001    1    0  303.19721E+01     0.000
BERM    1 000010001    1    0  304.19721E+01     0.000
BERM    1 000010001    1    0  305.19721E+01     0.000
BERM    1 000010001    1    0  306.19721E+01     0.000
BERM    1 000010001    1    0  307.19721E+01     0.000
BERM    1 000010001    1    0  308.19721E+01     0.000
BERM    1 000010001    1    0  309.19721E+01     0.000
BERM    1 000010001    1    0  310.19721E+01     0.000
BERM    1 000010001    1    0  311.19721E+01     0.000
BERM    1 000010001    1    0  312.19721E+01     0.000
BERM    1 000010001    1    0  313.19721E+01     0.000
BERM    1 000010001    1    0  314.19721E+01     1.900
BERM    1 000010001    1    0  315.19721E+01     0.000
BERM    1 000010001    1    0  316.19721E+01     0.000
BERM    1 000010001    1    0  317.19721E+01     0.000
BERM    1 000010001    1    0  318.19721E+01     0.000
BERM    1 000010001    1    0  319.19721E+01     0.000
BERM    1 000010001    1    0  320.19721E+01     0.000
BERM    1 000010001    1    0  321.19721E+01    11.300
BERM    1 000010001    1    0  322.19721E+01     0.000
BERM    1 000010001    1    0  323.19721E+01     0.000
BERM    1 000010001    1    0  324.19721E+01     0.000
BERM    1 000010001    1    0  325.19721E+01    10.000
BERM    1 000010001    1    0  326.19721E+01    35.100
BERM    1 000010001    1    0  327.19721E+01     0.300
BERM    1 000010001    1    0  328.19721E+01     0.000
BERM    1 000010001    1    0  329.19721E+01     0.000
BERM    1 000010001    1    0  330.19721E+01     0.000
BERM    1 000010001    1    0  331.19721E+01     0.000
BERM    1 000010001    1    0  332.19721E+01    15.400
BERM    1 000010001    1    0  333.19721E+01     1.300
BERM    1 000010001    1    0  334.19721E+01    17.900
BERM    1 000010001    1    0  335.19721E+01     0.000
BERM    1 000010001    1    0  336.19721E+01     0.600
BERM    1 000010001    1    0  337.19721E+01     0.000
BERM    1 000010001    1    0  338.19721E+01     0.600
BERM    1 000010001    1    0  339.19721E+01    15.400
BERM    1 000010001    1    0  340.19721E+01    14.400
BERM    1 000010001    1    0  341.19721E+01     0.000
BERM    1 000010001    1    0  342.19721E+01     0.000
BERM    1 000010001    1    0  343.19721E+01     8.500
BERM    1 000010001    1    0  344.19721E+01     0.300
BERM    1 000010001    1    0  345.19721E+01     0.000
BERM    1 000010001    1    0  346.19721E+01     0.000
BERM    1 000010001    1    0  347.19721E+01     0.000
BERM    1 000010001    1    0  348.19721E+01     0.000
BERM    1 000010001    1    0  349.19721E+01     1.000
BERM    1 000010001    1    0  350.19721E+01    26.100
BERM    1 000010001    1    0  351.19721E+01     0.000
BERM    1 000010001    1    0  352.19721E+01     6.000
BERM    1 000010001    1    0  353.19721E+01     0.800
BERM    1 000010001    1    0  354.19721E+01     0.000
BERM    1 000010001    1    0  355.19721E+01     0.000
BERM    1 000010001    1    0  356.19721E+01     0.000
BERM    1 000010001    1    0  357.19721E+01     0.000
BERM    1 000010001    1    0  358.19721E+01     0.000
BERM    1 000010001    1    0  359.19721E+01     0.400
BERM    1 000010001    1    0  360.19721E+01     3.800
BERM    1 000010001    1    0  361.19721E+01     0.000
BERM    1 000010001    1    0  362.19721E+01     0.000
BERM    1 000010001    1    0  363.19721E+01    11.400
BERM    1 000010001    1    0  364.19721E+01     0.000
BERM    1 000010001    1    0  365.19721E+01     0.000
BERM    1 000010001    1    0    1.19721E+01     0.500
BERM    1 000010001    1    0    2.19721E+01     0.000
BERM    1 000010001    1    0    3.19721E+01     5.900
BERM    1 000010001    1    0    4.19721E+01     0.000
BERM    1 000010001    1    0    5.19721E+01     0.000
BERM    1 000010001    1    0    6.19721E+01     1.700
BERM    1 000010001    1    0    7.19721E+01     0.000
BERM    1 000010001    1    0    8.19721E+01     0.000
BERM    1 000010001    1    0    9.19721E+01     0.000
BERM    1 000010001    1    0   10.19721E+01     0.000
BERM    1 000010001    1    0   11.19721E+01     0.000
BERM    1 000010001    1    0   12.19721E+01     1.700
BERM    1 000010001    1    0   13.19721E+01     0.000
BERM    1 000010001    1    0   14.19721E+01     5.200
BERM    1 000010001    1    0   15.19721E+01     0.000
BERM    1 000010001    1    0   16.19721E+01     0.000
BERM    1 000010001    1    0   17.19721E+01     0.500
BERM    1 000010001    1    0   18.19721E+01     9.000
BERM    1 000010001    1    0   19.19721E+01     0.000
BERM    1 000010001    1    0   20.19721E+01     0.000
BERM    1 000010001    1    0   21.19721E+01     0.000
BERM    1 000010001    1    0   22.19721E+01     7.200
BERM    1 000010001    1    0   23.19721E+01     0.300
BERM    1 000010001    1    0   24.19721E+01     0.500
BERM    1 000010001    1    0   25.19721E+01     0.000
BERM    1 000010001    1    0   26.19721E+01     0.000
BERM    1 000010001    1    0   27.19721E+01     0.000
BERM    1 000010001    1    0   28.19721E+01     0.000
BERM    1 000010001    1    0   29.19721E+01     0.000
BERM    1 000010001    1    0   30.19721E+01     0.000
BERM    1 000010001    1    0   31.19721E+01     4.900
BERM    1 000010001    1    0   32.19721E+01     0.000
BERM    1 000010001    1    0   33.19721E+01     0.000
BERM    1 000010001    1    0   34.19721E+01     1.100
BERM    1 000010001    1    0   35.19721E+01     0.000
BERM    1 000010001    1    0   36.19721E+01    10.800
BERM    1 000010001    1    0   37.19721E+01     0.000
BERM    1 000010001    1    0   38.19721E+01     0.100
BERM    1 000010001    1    0   39.19721E+01     0.000
BERM    1 000010001    1    0   40.19721E+01     0.000
BERM    1 000010001    1    0   41.19721E+01     0.000
BERM    1 000010001    1    0   42.19721E+01     0.000
BERM    1 000010001    1    0   43.19721E+01     5.900
BERM    1 000010001    1    0   44.19721E+01     0.000
BERM    1 000010001    1    0   45.19721E+01     0.000
BERM    1 000010001    1    0   46.19721E+01     0.000
BERM    1 000010001    1    0   47.19721E+01     0.000
BERM    1 000010001    1    0   48.19721E+01     0.000
BERM    1 000010001    1    0   49.19721E+01     0.000
BERM    1 000010001    1    0   50.19721E+01     1.100
BERM    1 000010001    1    0   51.19721E+01     0.000
BERM    1 000010001    1    0   52.19721E+01     0.000
BERM    1 000010001    1    0   53.19721E+01     0.000
BERM    1 000010001    1    0   54.19721E+01    10.700
BERM    1 000010001    1    0   55.19721E+01     1.800
BERM    1 000010001    1    0   56.19721E+01     0.000
BERM    1 000010001    1    0   57.19721E+01     0.000
BERM    1 000010001    1    0   58.19721E+01     0.000
BERM    1 000010001    1    0   59.19721E+01     0.000
BERM    1 000010001    1    0   60.19721E+01     0.000
BERM    1 000010001    1    0   61.19721E+01     0.000
BERM    1 000010001    1    0   62.19721E+01     0.000
BERM    1 000010001    1    0   63.19721E+01     0.000
BERM    1 000010001    1    0   64.19721E+01     0.000
BERM    1 000010001    1    0   65.19721E+01     0.000
BERM    1 000010001    1    0   66.19721E+01     1.600
BERM    1 000010001    1    0   67.19721E+01     0.000
BERM    1 000010001    1    0   68.19721E+01     0.000
BERM    1 000010001    1    0   69.19721E+01     0.000
BERM    1 000010001    1    0   70.19721E+01     0.000
BERM    1 000010001    1    0   71.19721E+01     0.200
BERM    1 000010001    1    0   72.19721E+01     0.000
BERM    1 000010001    1    0   73.19721E+01     0.000
BERM    1 000010001    1    0   74.19721E+01     2.600
BERM    1 000010001    1    0   75.19721E+01     0.000
BERM    1 000010001    1    0   76.19721E+01     0.000
BERM    1 000010001    1    0   77.19721E+01     0.000
BERM    1 000010001    1    0   78.19721E+01     0.000
BERM    1 000010001    1    0   79.19721E+01     0.000
BERM    1 000010001    1    0   80.19721E+01    11.600
BERM    1 000010001    1    0   81.19721E+01     2.500
BERM    1 000010001    1    0   82.19721E+01     0.000
BERM    1 000010001    1    0   83.19721E+01     0.000
BERM    1 000010001    1    0   84.19721E+01     0.000
BERM    1 000010001    1    0   85.19721E+01     2.800
BERM    1 000010001    1    0   86.19721E+01     0.000
BERM    1 000010001    1    0   87.19721E+01     0.000
BERM    1 000010001    1    0   88.19721E+01     0.000
BERM    1 000010001    1    0   89.19721E+01     0.000
BERM    1 000010001    1    0   90.19721E+01     0.000
BERM    1 000010001    1    0   91.19721E+01     1.200
BERM    1 000010001    1    0   92.19721E+01     0.000
BERM    1 000010001    1    0   93.19721E+01     3.600
BERM    1 000010001    1    0   94.19721E+01    13.000
BERM    1 000010001    1    0   95.19721E+01     0.000
BERM    1 000010001    1    0   96.19721E+01     0.000
BERM    1 000010001    1    0   97.19721E+01     0.000
BERM    1 000010001    1    0   98.19721E+01     0.000
BERM    1 000010001    1    0   99.19721E+01     1.900
BERM    1 000010001    1    0  100.19721E+01     0.000
BERM    1 000010001    1    0  101.19721E+01     0.000
BERM    1 000010001    1    0  102.19721E+01     0.000
BERM    1 000010001    1    0  103.19721E+01     0.000
BERM    1 000010001    1    0  104.19721E+01     0.000
BERM    1 000010001    1    0  105.19721E+01     0.000
BERM    1 000010001    1    0  106.19721E+01     0.000
BERM    1 000010001    1    0  107.19721E+01     0.000
BERM    1 000010001    1    0  108.19721E+01     9.600
BERM    1 000010001    1    0  109.19721E+01     0.000
BERM    1 000010001    1    0  110.19721E+01     0.000
BERM    1 000010001    1    0  111.19721E+01     0.000
BERM    1 000010001    1    0  112.19721E+01     0.000
BERM    1 000010001    1    0  113.19721E+01    23.100
BERM    1 000010001    1    0  114.19721E+01     0.000
BERM    1 000010001    1    0  115.19721E+01     0.000
BERM    1 000010001    1    0  116.19721E+01    18.600
BERM    1 000010001    1    0  117.19721E+01    13.100
BERM    1 000010001    1    0  118.19721E+01     9.300
BERM    1 000010001    1    0  119.19721E+01     0.000
BERM    1 000010001    1    0  120.19721E+01     0.000
BERM    1 000010001    1    0  121.19721E+01     0.000
BERM    1 000010001    1    0  122.19721E+01     0.000
BERM    1 000010001    1    0  123.19721E+01     0.000
BERM    1 000010001    1    0  124.19721E+01     0.000
BERM    1 000010001    1    0  125.19721E+01     0.000
BERM    1 000010001    1    0  126.19721E+01     3.100
BERM    1 000010001    1    0  127.19721E+01     2.000
BERM    1 000010001    1    0  128.19721E+01    28.300
BERM    1 000010001    1    0  129.19721E+01     0.000
BERM    1 000010001    1    0  130.19721E+01     0.000
BERM    1 000010001    1    0  131.19721E+01     0.000
BERM    1 000010001    1    0  132.19721E+01     5.400
BERM    1 000010001    1    0  133.19721E+01     0.000
BERM    1 000010001    1    0  134.19721E+01     2.400
BERM    1 000010001    1    0  135.19721E+01    23.600
BERM    1 000010001    1    0  136.19721E+01     1.000
BERM    1 000010001    1    0  137.19721E+01     0.000
BERM    1 000010001    1    0  138.19721E+01     0.000
BERM    1 000010001    1    0  139.19721E+01     9.700
BERM    1 000010001    1    0  140.19721E+01     0.800
BERM    1 000010001    1    0  141.19721E+01     1.400
BERM    1 000010001    1    0  142.19721E+01     0.000
BERM    1 000010001    1    0  143.19721E+01     0.800
BERM    1 000010001    1    0  144.19721E+01     0.000
BERM    1 000010001    1    0  145.19721E+01     0.000
BERM    1 000010001    1    0  146.19721E+01     0.000
BERM    1 000010001    1    0  147.19721E+01     1.800
BERM    1 000010001    1    0  148.19721E+01     0.000
BERM    1 000010001    1    0  149.19721E+01     0.000
BERM    1 000010001    1    0  150.19721E+01     0.000
BERM    1 000010001    1    0  151.19721E+01     0.100
BERM    1 000010001    1    0  152.19721E+01     0.000
BERM    1 000010001    1    0  153.19721E+01     0.000
BERM    1 000010001    1    0  154.19721E+01    17.700
BERM    1 000010001    1    0  155.19721E+01     0.000
BERM    1 000010001    1    0  156.19721E+01     4.700
BERM    1 000010001    1    0  157.19721E+01     0.000
BERM    1 000010001    1    0  158.19721E+01     0.500
BERM    1 000010001    1    0  159.19721E+01     0.000
BERM    1 000010001    1    0  160.19721E+01     1.600
BERM    1 000010001    1    0  161.19721E+01     0.000
BERM    1 000010001    1    0  162.19721E+01     6.700
BERM    1 000010001    1    0  163.19721E+01    14.600
BERM    1 000010001    1    0  164.19721E+01     3.100
BERM    1 000010001    1    0  165.19721E+01    25.800
BERM    1 000010001    1    0  166.19721E+01   104.100
BERM    1 000010001    1    0  167.19721E+01     0.000
BERM    1 000010001    1    0  168.19721E+01     0.000
BERM    1 000010001    1    0  169.19721E+01     0.000
BERM    1 000010001    1    0  170.19721E+01     0.000
BERM    1 000010001    1    0  171.19721E+01     0.000
BERM    1 000010001    1    0  172.19721E+01     0.000
BERM    1 000010001    1    0  173.19721E+01     1.600
BERM    1 000010001    1    0  174.19721E+01     0.000
BERM    1 000010001    1    0  175.19721E+01    24.500
BERM    1 000010001    1    0  176.19721E+01     0.000
BERM    1 000010001    1    0  177.19721E+01    13.300
BERM    1 000010001    1    0  178.19721E+01     2.600
BERM    1 000010001    1    0  179.19721E+01    23.000
BERM    1 000010001    1    0  180.19721E+01     0.200
BERM    1 000010001    1    0  181.19721E+01     0.000
BERM    1 000010001    1    0  182.19721E+01     0.000
BERM    1 000010001    1    0  183.19721E+01     0.000
BERM    1 000010001    1    0  184.19721E+01     0.000
BERM    1 000010001    1    0  185.19721E+01     0.000
BERM    1 000010001    1    0  186.19721E+01     0.000
BERM    1 000010001    1    0  187.19721E+01     9.800
BERM    1 000010001    1    0  188.19721E+01     7.300
BERM    1 000010001    1    0  189.19721E+01     0.000
BERM    1 000010001    1    0  190.19721E+01     0.000
BERM    1 000010001    1    0  191.19721E+01     0.000
BERM    1 000010001    1    0  192.19721E+01     0.000
BERM    1 000010001    1    0  193.19721E+01     0.000
BERM    1 000010001    1    0  194.19721E+01     0.000
BERM    1 000010001    1    0  195.19721E+01     4.200
BERM    1 000010001    1    0  196.19721E+01     0.400
BERM    1 000010001    1    0  197.19721E+01     0.300
BERM    1 000010001    1    0  198.19721E+01     0.000
BERM    1 000010001    1    0  199.19721E+01     0.000
BERM    1 000010001    1    0  200.19721E+01     0.000
BERM    1 000010001    1    0  201.19721E+01     3.200
BERM    1 000010001    1    0  202.19721E+01     0.000
BERM    1 000010001    1    0  203.19721E+01     0.300
BERM    1 000010001    1    0  204.19721E+01     0.900
BERM    1 000010001    1    0  205.19721E+01     4.700
BERM    1 000010001    1    0  206.19721E+01     1.300
BERM    1 000010001    1    0  207.19721E+01    22.100
BERM    1 000010001    1    0  208.19721E+01     0.100
BERM    1 000010001    1    0  209.19721E+01     4.200
BERM    1 000010001    1    0  210.19721E+01     0.000
BERM    1 000010001    1    0  211.19721E+01     0.000
BERM    1 000010001    1    0  212.19721E+01     0.000
BERM    1 000010001    1    0  213.19721E+01     0.100
BERM    1 000010001    1    0  214.19721E+01     0.000
BERM    1 000010001    1    0  215.19721E+01     0.000
BERM    1 000010001    1    0  216.19721E+01     0.000
BERM    1 000010001    1    0  217.19721E+01     0.000
BERM    1 000010001    1    0  218.19721E+01     0.000
BERM    1 000010001    1    0  219.19721E+01     0.000
BERM    1 000010001    1    0  220.19721E+01     5.200
BERM    1 000010001    1    0  221.19721E+01     0.000
BERM    1 000010001    1    0  222.19721E+01     0.000
BERM    1 000010001    1    0  223.19721E+01     0.000
BERM    1 000010001    1    0  224.19721E+01     0.500
BERM    1 000010001    1    0  225.19721E+01     0.500
BERM    1 000010001    1    0  226.19721E+01     0.000
BERM    1 000010001    1    0  227.19721E+01     0.000
BERM    1 000010001    1    0  228.19721E+01     0.000
BERM    1 000010001    1    0  229.19721E+01     0.000
BERM    1 000010001    1    0  230.19721E+01     0.000
BERM    1 000010001    1    0  231.19721E+01     2.100
BERM    1 000010001    1    0  232.19721E+01     0.000
BERM    1 000010001    1    0  233.19721E+01     3.000
BERM    1 000010001    1    0  234.19721E+01     0.600
BERM    1 000010001    1    0  235.19721E+01     1.200
BERM    1 000010001    1    0  236.19721E+01     0.000
BERM    1 000010001    1    0  237.19721E+01     0.000
BERM    1 000010001    1    0  238.19721E+01     0.000
BERM    1 000010001    1    0  239.19721E+01     0.000
BERM    1 000010001    1    0  240.19721E+01     0.000
BERM    1 000010001    1    0  241.19721E+01     0.000
BERM    1 000010001    1    0  242.19721E+01     3.700
BERM    1 000010001    1    0  243.19721E+01    29.200
BERM    1 000010001    1    0  244.19721E+01    36.700
BERM    1 000010001    1    0  245.19721E+01     3.200
BERM    1 000010001    1    0  246.19721E+01     0.000
BERM    1 000010001    1    0  247.19721E+01     0.000
BERM    1 000010001    1    0  248.19721E+01    27.900
BERM    1 000010001    1    0  249.19721E+01     2.900
BERM    1 000010001    1    0  250.19721E+01     1.600
BERM    1 000010001    1    0  251.19721E+01     0.000
BERM    1 000010001    1    0  252.19721E+01     0.000
BERM    1 000010001    1    0  253.19721E+01     0.000
BERM    1 000010001    1    0  254.19721E+01     0.000
BERM    1 000010001    1    0  255.19721E+01     0.000
BERM    1 000010001    1    0  256.19721E+01     0.000
BERM    1 000010001    1    0  257.19721E+01    15.100
BERM    1 000010001    1    0  258.19721E+01     0.500
BERM    1 000010001    1    0  259.19721E+01     0.000
BERM    1 000010001    1    0  260.19721E+01     0.000
BERM    1 000010001    1    0  261.19721E+01     0.000
BERM    1 000010001    1    0  262.19721E+01     0.000
BERM    1 000010001    1    0  263.19721E+01     7.900
BERM    1 000010001    1    0  264.19721E+01     0.000
BERM    1 000010001    1    0  265.19721E+01     0.000
BERM    1 000010001    1    0  266.19721E+01     0.000
BERM    1 000010001    1    0  267.19721E+01     0.000
BERM    1 000010001    1    0  268.19721E+01     8.300
BERM    1 000010001    1    0  269.19721E+01     0.000
BERM    1 000010001    1    0  270.19721E+01     0.000
BERM    1 000010001    1    0  271.19721E+01     0.000
BERM    1 000010001    1    0  272.19721E+01    17.700
BERM    1 000010001    1    0  273.19721E+01     0.000
BERM    1 000010001    1    0  274.19721E+01     0.000
BERM    1 000010001    1    0  275.19721E+01     0.000
BERM    1 000010001    1    0  276.19721E+01     0.000
BERM    1 000010001    1    0  277.19721E+01     0.000
BERM    1 000010001    1    0  278.19721E+01     0.000
BERM    1 000010001    1    0  279.19721E+01     8.500
BERM    1 000010001    1    0  280.19721E+01     5.700
BERM    1 000010001    1    0  281.19721E+01    22.700
BERM    1 000010001    1    0  282.19721E+01     0.000
BERM    1 000010001    1    0  283.19721E+01     0.000
BERM    1 000010001    1    0  284.19721E+01     0.000
BERM    1 000010001    1    0  285.19721E+01     8.700
BERM    1 000010001    1    0  286.19721E+01     0.000
BERM    1 000010001    1    0  287.19721E+01     0.000
BERM    1 000010001    1    0  288.19721E+01     0.000
BERM    1 000010001    1    0  289.19721E+01     0.000
BERM    1 000010001    1    0  290.19721E+01     1.500
BERM    1 000010001    1    0  291.19721E+01    25.500
BERM    1 000010001    1    0  292.19721E+01     0.000
BERM    1 000010001    1    0  293.19721E+01     2.400
BERM    1 000010001    1    0  294.19721E+01     0.000
BERM    1 000010001    1    0  295.19721E+01     0.000
BERM    1 000010001    1    0  296.19721E+01     2.200
BERM    1 000010001    1    0  297.19721E+01     0.000
BERM    1 000010001    1    0  298.19721E+01     0.000
BERM    1 000010001    1    0  299.19721E+01     0.000
BERM    1 000010001    1    0  300.19721E+01     0.000
BERM    1 000010001    1    0  301.19721E+01    21.000
BERM    1 000010001    1    0  302.19721E+01     0.000
BERM    1 000010001    1    0  303.19721E+01     0.000
BERM    1 000010001    1    0  304.19721E+01     0.000
BERM    1 000010001    1    0  305.19721E+01     0.000
BERM    1 000010001    1    0  306.19721E+01     0.000
BERM    1 000010001    1    0  307.19721E+01     0.000
BERM    1 000010001    1    0  308.19721E+01     0.000
BERM    1 000010001    1    0  309.19721E+01     0.000
BERM    1 000010001    1    0  310.19721E+01     0.000
BERM    1 000010001    1    0  311.19721E+01     0.000
BERM    1 000010001    1    0  312.19721E+01    52.600
BERM    1 000010001    1    0  313.19721E+01     0.000
BERM    1 000010001    1    0  314.19721E+01     0.000
BERM    1 000010001    1    0  315.19721E+01     0.000
BERM    1 000010001    1    0  316.19721E+01    23.900
BERM    1 000010001    1    0  317.19721E+01     7.000
BERM    1 000010001    1    0  318.19721E+01     0.000
BERM    1 000010001    1    0  319.19721E+01     0.000
BERM    1 000010001    1    0  320.19721E+01    20.100
BERM    1 000010001    1    0  321.19721E+01    22.500
BERM    1 000010001    1    0  322.19721E+01     0.000
BERM    1 000010001    1    0  323.19721E+01     0.000
BERM    1 000010001    1    0  324.19721E+01     0.000
BERM    1 000010001    1    0  325.19721E+01     0.000
BERM    1 000010001    1    0  326.19721E+01    43.900
BERM    1 000010001    1    0  327.19721E+01    19.300
BERM    1 000010001    1    0  328.19721E+01     0.000
BERM    1 000010001    1    0  329.19721E+01     0.000
BERM    1 000010001    1    0  330.19721E+01     0.000
BERM    1 000010001    1    0  331.19721E+01     0.000
BERM    1 000010001    1    0  332.19721E+01     0.000
BERM    1 000010001    1    0  333.19721E+01     0.000
BERM    1 000010001    1    0  334.19721E+01     0.000
BERM    1 000010001    1    0  335.19721E+01     0.300
BERM    1 000010001    1    0  336.19721E+01     5.600
BERM    1 000010001    1    0  337.19721E+01     0.000
BERM    1 000010001    1    0  338.19721E+01     2.800
BERM    1 000010001    1    0  339.19721E+01     0.000
BERM    1 000010001    1    0  340.19721E+01     0.000
BERM    1 000010001    1    0  341.19721E+01     0.000
BERM    1 000010001    1    0  342.19721E+01     0.000
BERM    1 000010001    1    0  343.19721E+01     0.000
BERM    1 000010001    1    0  344.19721E+01     0.000
BERM    1 000010001    1    0  345.19721E+01     0.000
BERM    1 000010001    1    0  346.19721E+01     0.000
BERM    1 000010001    1    0  347.19721E+01     0.000
BERM    1 000010001    1    0  348.19721E+01     0.000
BERM    1 000010001    1    0  349.19721E+01     0.000
BERM    1 000010001    1    0  350.19721E+01     0.000
BERM    1 000010001    1    0  351.19721E+01     0.000
BERM    1 000010001    1    0  352.19721E+01     0.000
BERM    1 000010001    1    0  353.19721E+01     0.000
BERM    1 000010001    1    0  354.19721E+01     0.000
BERM    1 000010001    1    0  355.19721E+01     0.000
BERM    1 000010001    1    0  356.19721E+01     0.000
BERM    1 000010001    1    0  357.19721E+01    25.200
BERM    1 000010001    1    0  358.19721E+01     0.000
BERM    1 000010001    1    0  359.19721E+01     1.400
BERM    1 000010001    1    0  360.19721E+01    42.100
BERM    1 000010001    1    0  361.19721E+01     0.000
BERM    1 000010001    1    0  362.19721E+01     0.000
BERM    1 000010001    1    0  363.19721E+01     0.000
BERM    1 000010001    1    0  364.19721E+01     0.000
BERM    1 000010001    1    0  365.19721E+01     0.000
BERM    1 000010001    1    0    1.19721E+01     2.500
BERM    1 000010001    1    0    2.19721E+01     3.800
BERM    1 000010001    1    0    3.19721E+01     0.000
BERM    1 000010001    1    0    4.19721E+01     0.000
BERM    1 000010001    1    0    5.19721E+01     0.300
BERM    1 000010001    1    0    6.19721E+01    21.500
BERM    1 000010001    1    0    7.19721E+01     0.000
BERM    1 000010001    1    0    8.19721E+01    12.300
BERM    1 000010001    1    0    9.19721E+01     2.600
BERM    1 000010001    1    0   10.19721E+01     0.000
BERM    1 000010001    1    0   11.19721E+01     0.000
BERM    1 000010001    1    0   12.19721E+01     0.000
BERM    1 000010001    1    0   13.19721E+01     0.000
BERM    1 000010001    1    0   14.19721E+01     0.000
BERM    1 000010001    1    0   15.19721E+01     0.000
BERM    1 000010001    1    0   16.19721E+01     0.000
BERM    1 000010001    1    0   17.19721E+01     0.100
BERM    1 000010001    1    0   18.19721E+01     0.800
BERM    1 000010001    1    0   19.19721E+01     3.600
BERM    1 000010001    1    0   20.19721E+01     0.000
BERM    1 000010001    1    0   21.19721E+01     0.000
BERM    1 000010001    1    0   22.19721E+01    15.100
BERM    1 000010001    1    0   23.19721E+01     0.000
BERM    1 000010001    1    0   24.19721E+01     0.000
BERM    1 000010001    1    0   25.19721E+01     0.000
BERM    1 000010001    1    0   26.19721E+01     0.000
BERM    1 000010001    1    0   27.19721E+01     0.000
BERM    1 000010001    1    0   28.19721E+01     0.000
BERM    1 000010001    1    0   29.19721E+01     0.000
BERM    1 000010001    1    0   30.19721E+01     0.000
BERM    1 000010001    1    0   31.19721E+01     0.000
BERM    1 000010001    1    0   32.19721E+01     0.000
BERM    1 000010001    1    0   33.19721E+01     7.600
BERM    1 000010001    1    0   34.19721E+01     0.000
BERM    1 000010001    1    0   35.19721E+01     0.000
BERM    1 000010001    1    0   36.19721E+01     0.000
BERM    1 000010001    1    0   37.19721E+01     0.000
BERM    1 000010001    1    0   38.19721E+01     0.000
BERM    1 000010001    1    0   39.19721E+01     0.000
BERM    1 000010001    1    0   40.19721E+01     0.000
BERM    1 000010001    1    0   41.19721E+01     0.000
BERM    1 000010001    1    0   42.19721E+01     0.000
BERM    1 000010001    1    0   43.19721E+01     0.000
BERM    1 000010001    1    0   44.19721E+01     0.000
BERM    1 000010001    1    0   45.19721E+01    15.500
BERM    1 000010001    1    0   46.19721E+01     1.000
BERM    1 000010001    1    0   47.19721E+01     0.000
BERM    1 000010001    1    0   48.19721E+01     0.000
BERM    1 000010001    1    0   49.19721E+01     0.000
BERM    1 000010001    1    0   50.19721E+01     0.000
BERM    1 000010001    1    0   51.19721E+01     0.000
BERM    1 000010001    1    0   52.19721E+01     0.000
BERM    1 000010001    1    0   53.19721E+01     0.000
BERM    1 000010001    1    0   54.19721E+01     0.000
BERM    1 000010001    1    0   55.19721E+01     0.000
BERM    1 000010001    1    0   56.19721E+01     0.000
BERM    1 000010001    1    0   57.19721E+01    16.300
BERM    1 000010001    1    0   58.19721E+01     0.000
BERM    1 000010001    1    0   59.19721E+01     0.000
BERM    1 000010001    1    0   60.19721E+01     0.000
BERM    1 000010001    1    0   61.19721E+01    19.100
BERM    1 000010001    1    0   62.19721E+01     0.000
BERM    1 000010001    1    0   63.19721E+01     0.000
BERM    1 000010001    1    0   64.19721E+01     0.000
BERM    1 000010001    1    0   65.19721E+01     0.000
BERM    1 000010001    1    0   66.19721E+01     0.000
BERM    1 000010001    1    0   67.19721E+01     0.000
BERM    1 000010001    1    0   68.19721E+01     0.000
BERM    1 000010001    1    0   69.19721E+01     0.000
BERM    1 000010001    1    0   70.19721E+01     0.000
BERM    1 000010001    1    0   71.19721E+01     0.000
BERM    1 000010001    1    0   72.19721E+01     0.000
BERM    1 000010001    1    0   73.19721E+01     0.000
BERM    1 000010001    1    0   74.19721E+01     0.000
BERM    1 000010001    1    0   75.19721E+01     9.300
BERM    1 000010001    1    0   76.19721E+01    35.000
BERM    1 000010001    1    0   77.19721E+01     0.000
BERM    1 000010001    1    0   78.19721E+01     0.000
BERM    1 000010001    1    0   79.19721E+01     0.000
BERM    1 000010001    1    0   80.19721E+01     0.000
BERM    1 000010001    1    0   81.19721E+01     0.000
BERM    1 000010001    1    0   82.19721E+01     0.000
BERM    1 000010001    1    0   83.19721E+01     0.000
BERM    1 000010001    1    0   84.19721E+01     0.000
BERM    1 000010001    1    0   85.19721E+01     0.000
BERM    1 000010001    1    0   86.19721E+01     0.000
BERM    1 000010001    1    0   87.19721E+01     0.200
BERM    1 000010001    1    0   88.19721E+01     5.700
BERM    1 000010001    1    0   89.19721E+01     1.500
BERM    1 000010001    1    0   90.19721E+01     0.000
BERM    1 000010001    1    0   91.19721E+01     0.000
BERM    1 000010001    1    0   92.19721E+01     2.400
BERM    1 000010001    1    0   93.19721E+01     0.000
BERM    1 000010001    1    0   94.19721E+01     3.000
BERM    1 000010001    1    0   95.19721E+01     0.000
BERM    1 000010001    1    0   96.19721E+01     0.000
BERM    1 000010001    1    0   97.19721E+01     3.900
BERM    1 000010001    1    0   98.19721E+01     0.000
BERM    1 000010001    1    0   99.19721E+01     0.000
BERM    1 000010001    1    0  100.19721E+01     0.000
BERM    1 000010001    1    0  101.19721E+01     0.000
BERM    1 000010001    1    0  102.19721E+01    17.200
BERM    1 000010001    1    0  103.19721E+01     0.000
BERM    1 000010001    1    0  104.19721E+01     0.000
BERM    1 000010001    1    0  105.19721E+01    15.100
BERM    1 000010001    1    0  106.19721E+01    30.700
BERM    1 000010001    1    0  107.19721E+01     0.000
BERM    1 000010001    1    0  108.19721E+01     0.000
BERM    1 000010001    1    0  109.19721E+01     0.000
BERM    1 000010001    1    0  110.19721E+01     0.000
BERM    1 000010001    1    0  111.19721E+01     0.000
BERM    1 000010001    1    0  112.19721E+01     0.000
BERM    1 000010001    1    0  113.19721E+01     0.000
BERM    1 000010001    1    0  114.19721E+01     0.000
BERM    1 000010001    1    0  115.19721E+01     0.000
BERM    1 000010001    1    0  116.19721E+01     0.000
BERM    1 000010001    1    0  117.19721E+01     1.000
BERM    1 000010001    1    0  118.19721E+01     7.200
BERM    1 000010001    1    0  119.19721E+01     0.000
BERM    1 000010001    1    0  120.19721E+01     0.000
BERM    1 000010001    1    0  121.19721E+01     0.000
BERM    1 000010001    1    0  122.19721E+01     0.000
BERM    1 000010001    1    0  123.19721E+01     0.000
BERM    1 000010001    1    0  124.19721E+01     0.300
BERM    1 000010001    1    0  125.19721E+01     0.300
BERM    1 000010001    1    0  126.19721E+01     0.300
BERM    1 000010001    1    0  127.19721E+01     0.000
BERM    1 000010001    1    0  128.19721E+01     0.000
BERM    1 000010001    1    0  129.19721E+01     0.200
BERM    1 000010001    1    0  130.19721E+01     2.700
BERM    1 000010001    1    0  131.19721E+01     0.000
BERM    1 000010001    1    0  132.19721E+01     2.000
BERM    1 000010001    1    0  133.19721E+01    12.400
BERM    1 000010001    1    0  134.19721E+01     0.000
BERM    1 000010001    1    0  135.19721E+01     0.000
BERM    1 000010001    1    0  136.19721E+01     0.000
BERM    1 000010001    1    0  137.19721E+01     0.700
BERM    1 000010001    1    0  138.19721E+01     0.300
BERM    1 000010001    1    0  139.19721E+01     0.000
BERM    1 000010001    1    0  140.19721E+01     0.000
BERM    1 000010001    1    0  141.19721E+01     0.000
BERM    1 000010001    1    0  142.19721E+01     0.000
BERM    1 000010001    1    0  143.19721E+01     0.000
BERM    1 000010001    1    0  144.19721E+01     0.000
BERM    1 000010001    1    0  145.19721E+01     0.000
BERM    1 000010001    1    0  146.19721E+01     0.000
BERM    1 000010001    1    0  147.19721E+01     0.000
BERM    1 000010001    1    0  148.19721E+01     0.000
BERM    1 000010001    1    0  149.19721E+01     0.000
BERM    1 000010001    1    0  150.19721E+01     0.100
BERM    1 000010001    1    0  151.19721E+01     0.000
BERM    1 000010001    1    0  152.19721E+01     0.000
BERM    1 000010001    1    0  153.19721E+01     0.000
BERM    1 000010001    1    0  154.19721E+01    22.600
BERM    1 000010001    1    0  155.19721E+01     6.200
BERM    1 000010001    1    0  156.19721E+01     0.000
BERM    1 000010001    1    0  157.19721E+01     5.500
BERM    1 000010001    1    0  158.19721E+01     0.000
BERM    1 000010001    1    0  159.19721E+01     0.000
BERM    1 000010001    1    0  160.19721E+01     0.000
BERM    1 000010001    1    0  161.19721E+01     5.400
BERM    1 000010001    1    0  162.19721E+01     0.000
BERM    1 000010001    1    0  163.19721E+01     1.400
BERM    1 000010001    1    0  164.19721E+01     2.600
BERM    1 000010001    1    0  165.19721E+01    10.900
BERM    1 000010001    1    0  166.19721E+01     0.000
BERM    1 000010001    1    0  167.19721E+01     0.000
BERM    1 000010001    1    0  168.19721E+01     0.000
BERM    1 000010001    1    0  169.19721E+01     0.000
BERM    1 000010001    1    0  170.19721E+01     0.000
BERM    1 000010001    1    0  171.19721E+01    12.400
BERM    1 000010001    1    0  172.19721E+01     3.300
BERM    1 000010001    1    0  173.19721E+01     0.000
BERM    1 000010001    1    0  174.19721E+01     1.000
BERM    1 000010001    1    0  175.19721E+01     0.000
BERM    1 000010001    1    0  176.19721E+01     0.000
BERM    1 000010001    1    0  177.19721E+01     0.000
BERM    1 000010001    1    0  178.19721E+01     8.200
BERM    1 000010001    1    0  179.19721E+01     0.000
BERM    1 000010001    1    0  180.19721E+01     0.800
BERM    1 000010001    1    0  181.19721E+01     4.600
BERM    1 000010001    1    0  182.19721E+01     0.000
BERM    1 000010001    1    0  183.19721E+01     0.000
BERM    1 000010001    1    0  184.19721E+01     0.000
BERM    1 000010001    1    0  185.19721E+01     0.000
BERM    1 000010001    1    0  186.19721E+01     0.000
BERM    1 000010001    1    0  187.19721E+01     0.000
BERM    1 000010001    1    0  188.19721E+01     0.000
BERM    1 000010001    1    0  189.19721E+01     0.700
BERM    1 000010001    1    0  190.19721E+01     0.000
BERM    1 000010001    1    0  191.19721E+01     0.000
BERM    1 000010001    1    0  192.19721E+01     6.500
BERM    1 000010001    1    0  193.19721E+01    13.800
BERM    1 000010001    1    0  194.19721E+01     0.000
BERM    1 000010001    1    0  195.19721E+01     0.600
BERM    1 000010001    1    0  196.19721E+01     0.000
BERM    1 000010001    1    0  197.19721E+01     0.700
BERM    1 000010001    1    0  198.19721E+01     0.000
BERM    1 000010001    1    0  199.19721E+01    56.000
BERM    1 000010001    1    0  200.19721E+01     0.000
BERM    1 000010001    1    0  201.19721E+01     0.000
BERM    1 000010001    1    0  202.19721E+01     0.000
BERM    1 000010001    1    0  203.19721E+01     0.000
BERM    1 000010001    1    0  204.19721E+01     0.000
BERM    1 000010001    1    0  205.19721E+01     0.000
BERM    1 000010001    1    0  206.19721E+01     0.000
BERM    1 000010001    1    0  207.19721E+01     0.000
BERM    1 000010001    1    0  208.19721E+01     0.000
BERM    1 000010001    1    0  209.19721E+01    10.400
BERM    1 000010001    1    0  210.19721E+01     9.300
BERM    1 000010001    1    0  211.19721E+01     0.000
BERM    1 000010001    1    0  212.19721E+01     6.100
BERM    1 000010001    1    0  213.19721E+01     0.000
BERM    1 000010001    1    0  214.19721E+01     0.000
BERM    1 000010001    1    0  215.19721E+01     0.000
BERM    1 000010001    1    0  216.19721E+01     0.000
BERM    1 000010001    1    0  217.19721E+01     0.000
BERM    1 000010001    1    0  218.19721E+01     0.300
BERM    1 000010001    1    0  219.19721E+01     0.000
BERM    1 000010001    1    0  220.19721E+01     0.000
BERM    1 000010001    1    0  221.19721E+01     0.000
BERM    1 000010001    1    0  222.19721E+01     3.000
BERM    1 000010001    1    0  223.19721E+01     1.200
BERM    1 000010001    1    0  224.19721E+01     0.000
BERM    1 000010001    1    0  225.19721E+01     0.000
BERM    1 000010001    1    0  226.19721E+01     0.000
BERM    1 000010001    1    0  227.19721E+01     0.000
BERM    1 000010001    1    0  228.19721E+01     0.000
BERM    1 000010001    1    0  229.19721E+01     0.000
BERM    1 000010001    1    0  230.19721E+01     0.400
BERM    1 000010001    1    0  231.19721E+01     0.000
BERM    1 000010001    1    0  232.19721E+01     0.000
BERM    1 000010001    1    0  233.19721E+01     0.000
BERM    1 000010001    1    0  234.19721E+01     7.300
BERM    1 000010001    1    0  235.19721E+01     4.600
BERM    1 000010001    1    0  236.19721E+01     0.000
BERM    1 000010001    1    0  237.19721E+01     0.000
BERM    1 000010001    1    0  238.19721E+01     0.000
BERM    1 000010001    1    0  239.19721E+01     5.600
BERM    1 000010001    1    0  240.19721E+01     0.000
BERM    1 000010001    1    0  241.19721E+01     0.000
BERM    1 000010001    1    0  242.19721E+01     0.000
BERM    1 000010001    1    0  243.19721E+01     0.000
BERM    1 000010001    1    0  244.19721E+01     0.000
BERM    1 000010001    1    0  245.19721E+01     0.000
BERM    1 000010001    1    0  246.19721E+01     0.000
BERM    1 000010001    1    0  247.19721E+01     0.000
BERM    1 000010001    1    0  248.19721E+01     0.000
BERM    1 000010001    1    0  249.19721E+01     0.000
BERM    1 000010001    1    0  250.19721E+01     0.000
BERM    1 000010001    1    0  251.19721E+01     0.000
BERM    1 000010001    1    0  252.19721E+01     0.000
BERM    1 000010001    1    0  253.19721E+01     0.000
BERM    1 000010001    1    0  254.19721E+01     0.000
BERM    1 000010001    1    0  255.19721E+01     0.000
BERM    1 000010001    1    0  256.19721E+01     0.000
BERM    1 000010001    1    0  257.19721E+01     0.000
BERM    1 000010001    1    0  258.19721E+01    40.100
BERM    1 000010001    1    0  259.19721E+01     0.000
BERM    1 000010001    1    0  260.19721E+01     0.000
BERM    1 000010001    1    0  261.19721E+01     0.000
BERM    1 000010001    1    0  262.19721E+01     0.000
BERM    1 000010001    1    0  263.19721E+01     0.000
BERM    1 000010001    1    0  264.19721E+01     2.700
BERM    1 000010001    1    0  265.19721E+01     0.000
BERM    1 000010001    1    0  266.19721E+01     2.000
BERM    1 000010001    1    0  267.19721E+01     0.000
BERM    1 000010001    1    0  268.19721E+01     0.000
BERM    1 000010001    1    0  269.19721E+01     0.000
BERM    1 000010001    1    0  270.19721E+01     0.000
BERM    1 000010001    1    0  271.19721E+01     0.000
BERM    1 000010001    1    0  272.19721E+01     0.000
BERM    1 000010001    1    0  273.19721E+01     0.000
BERM    1 000010001    1    0  274.19721E+01     0.000
BERM    1 000010001    1    0  275.19721E+01     0.000
BERM    1 000010001    1    0  276.19721E+01     0.000
BERM    1 000010001    1    0  277.19721E+01     0.000
BERM    1 000010001    1    0  278.19721E+01     0.000
BERM    1 000010001    1    0  279.19721E+01     3.700
BERM    1 000010001    1    0  280.19721E+01     0.000
BERM    1 000010001    1    0  281.19721E+01     0.000
BERM    1 000010001    1    0  282.19721E+01     0.000
BERM    1 000010001    1    0  283.19721E+01     2.300
BERM    1 000010001    1    0  284.19721E+01     0.000
BERM    1 000010001    1    0  285.19721E+01     0.000
BERM    1 000010001    1    0  286.19721E+01     0.000
BERM    1 000010001    1    0  287.19721E+01     0.000
BERM    1 000010001    1    0  288.19721E+01     0.000
BERM    1 000010001    1    0  289.19721E+01     0.000
BERM    1 000010001    1    0  290.19721E+01     0.000
BERM    1 000010001    1    0  291.19721E+01     0.000
BERM    1 000010001    1    0  292.19721E+01     4.000
BERM    1 000010001    1    0  293.19721E+01     6.800
BERM    1 000010001    1    0  294.19721E+01     0.000
BERM    1 000010001    1    0  295.19721E+01     0.000
BERM    1 000010001    1    0  296.19721E+01     0.000
BERM    1 000010001    1    0  297.19721E+01     0.000
BERM    1 000010001    1    0  298.19721E+01    45.700
BERM    1 000010001    1    0  299.19721E+01    14.800
BERM    1 000010001    1    0  300.19721E+01    76.200
BERM    1 000010001    1    0  301.19721E+01     0.000
BERM    1 000010001    1    0  302.19721E+01     0.000
BERM    1 000010001    1    0  303.19721E+01     0.000
BERM    1 000010001    1    0  304.19721E+01     0.000
BERM    1 000010001    1    0  305.19721E+01     0.000
BERM    1 000010001    1    0  306.19721E+01     0.000
BERM    1 000010001    1    0  307.19721E+01     0.000
BERM    1 000010001    1    0  308.19721E+01     0.000
BERM    1 000010001    1    0  309.19721E+01     0.000
BERM    1 000010001    1    0  310.19721E+01     0.000
BERM    1 000010001    1    0  311.19721E+01     0.000
BERM    1 000010001    1    0  312.19721E+01     0.000
BERM    1 000010001    1    0  313.19721E+01     0.000
BERM    1 000010001    1    0  314.19721E+01     0.000
BERM    1 000010001    1    0  315.19721E+01     0.000
BERM    1 000010001    1    0  316.19721E+01     0.000
BERM    1 000010001    1    0  317.19721E+01     0.300
BERM    1 000010001    1    0  318.19721E+01     0.000
BERM    1 000010001    1    0  319.19721E+01     0.200
BERM    1 000010001    1    0  320.19721E+01    10.200
BERM    1 000010001    1    0  321.19721E+01     0.000
BERM    1 000010001    1    0  322.19721E+01     0.000
BERM    1 000010001    1    0  323.19721E+01     0.000
BERM    1 000010001    1    0  324.19721E+01     0.100
BERM    1 000010001    1    0  325.19721E+01     0.000
BERM    1 000010001    1    0  326.19721E+01     0.000
BERM    1 000010001    1    0  327.19721E+01     0.000
BERM    1 000010001    1    0  328.19721E+01     0.000
BERM    1 000010001    1    0  329.19721E+01     0.000
BERM    1 000010001    1    0  330.19721E+01     1.300
BERM    1 000010001    1    0  331.19721E+01     2.400
BERM    1 000010001    1    0  332.19721E+01     0.000
BERM    1 000010001    1    0  333.19721E+01     0.000
BERM    1 000010001    1    0  334.19721E+01     0.000
BERM    1 000010001    1    0  335.19721E+01     0.000
BERM    1 000010001    1    0  336.19721E+01     0.000
BERM    1 000010001    1    0  337.19721E+01     0.900
BERM    1 000010001    1    0  338.19721E+01     0.000
BERM    1 000010001    1    0  339.19721E+01     0.000
BERM    1 000010001    1    0  340.19721E+01     0.000
BERM    1 000010001    1    0  341.19721E+01     0.000
BERM    1 000010001    1    0  342.19721E+01     0.000
BERM    1 000010001    1    0  343.19721E+01     0.000
BERM    1 000010001    1    0  344.19721E+01     0.000
BERM    1 000010001    1    0  345.19721E+01     0.000
BERM    1 000010001    1    0  346.19721E+01     0.000
BERM    1 000010001    1    0  347.19721E+01     0.000
BERM    1 000010001    1    0  348.19721E+01     0.000
BERM    1 000010001    1    0  349.19721E+01     0.000
BERM    1 000010001    1    0  350.19721E+01    33.900
BERM    1 000010001    1    0  351.19721E+01     0.000
BERM    1 000010001    1    0  352.19721E+01     0.000
BERM    1 000010001    1    0  353.19721E+01     0.000
BERM    1 000010001    1    0  354.19721E+01     0.300
BERM    1 000010001    1    0  355.19721E+01     0.000
BERM    1 000010001    1    0  356.19721E+01     0.000
BERM    1 000010001    1    0  357.19721E+01     0.000
BERM    1 000010001    1    0  358.19721E+01     4.500
BERM    1 000010001    1    0  359.19721E+01     0.000
BERM    1 000010001    1    0  360.19721E+01     3.100
BERM    1 000010001    1    0  361.19721E+01    16.000
BERM    1 000010001    1    0  362.19721E+01     0.000
BERM    1 000010001    1    0  363.19721E+01     2.300
BERM    1 000010001    1    0  364.19721E+01     0.300
BERM    1 000010001    1    0  365.19721E+01    35.900
BERM    1 000010001    1    0    1.19721E+01     0.000
BERM    1 000010001    1    0    2.19721E+01     0.000
BERM    1 000010001    1    0    3.19721E+01     0.000
BERM    1 000010001    1    0    4.19721E+01     0.000
BERM    1 000010001    1    0    5.19721E+01     0.000
BERM    1 000010001    1    0    6.19721E+01     0.000
BERM    1 000010001    1    0    7.19721E+01     0.000
BERM    1 000010001    1    0    8.19721E+01     0.000
BERM    1 000010001    1    0    9.19721E+01     0.000
BERM    1 000010001    1    0   10.19721E+01     0.000
BERM    1 000010001    1    0   11.19721E+01     0.000
BERM    1 000010001    1    0   12.19721E+01     0.000
BERM    1 000010001    1    0   13.19721E+01     0.000
BERM    1 000010001    1    0   14.19721E+01     0.000
BERM    1 000010001    1    0   15.19721E+01     0.000
BERM    1 000010001    1    0   16.19721E+01     0.000
BERM    1 000010001    1    0   17.19721E+01     1.800
BERM    1 000010001    1    0   18.19721E+01    13.300
BERM    1 000010001    1    0   19.19721E+01     0.400
BERM    1 000010001    1    0   20.19721E+01     9.800
BERM    1 000010001    1    0   21.19721E+01     0.000
BERM    1 000010001    1    0   22.19721E+01     0.000
BERM    1 000010001    1    0   23.19721E+01     2.200
BERM    1 000010001    1    0   24.19721E+01     0.000
BERM    1 000010001    1    0   25.19721E+01     0.000
BERM    1 000010001    1    0   26.19721E+01     0.000
BERM    1 000010001    1    0   27.19721E+01     0.000
BERM    1 000010001    1    0   28.19721E+01     0.000
BERM    1 000010001    1    0   29.19721E+01     0.000
BERM    1 000010001    1    0   30.19721E+01     2.400
BERM    1 000010001    1    0   31.19721E+01     0.000
BERM    1 000010001    1    0   32.19721E+01     8.400
BERM    1 000010001    1    0   33.19721E+01     9.100
BERM    1 000010001    1    0   34.19721E+01     0.000
BERM    1 000010001    1    0   35.19721E+01     0.000
BERM    1 000010001    1    0   36.19721E+01     0.000
BERM    1 000010001    1    0   37.19721E+01     0.000
BERM    1 000010001    1    0   38.19721E+01     0.300
BERM    1 000010001    1    0   39.19721E+01     0.000
BERM    1 000010001    1    0   40.19721E+01     0.000
BERM    1 000010001    1    0   41.19721E+01     0.000
BERM    1 000010001    1    0   42.19721E+01     0.000
BERM    1 000010001    1    0   43.19721E+01     0.000
BERM    1 000010001    1    0   44.19721E+01    13.500
BERM    1 000010001    1    0   45.19721E+01     8.400
BERM    1 000010001    1    0   46.19721E+01     0.000
BERM    1 000010001    1    0   47.19721E+01     0.000
BERM    1 000010001    1    0   48.19721E+01     0.000
BERM    1 000010001    1    0   49.19721E+01     9.200
BERM    1 000010001    1    0   50.19721E+01     0.600
BERM    1 000010001    1    0   51.19721E+01     0.000
BERM    1 000010001    1    0   52.19721E+01     0.000
BERM    1 000010001    1    0   53.19721E+01     3.400
BERM    1 000010001    1    0   54.19721E+01     0.800
BERM    1 000010001    1    0   55.19721E+01     0.000
BERM    1 000010001    1    0   56.19721E+01     0.600
BERM    1 000010001    1    0   57.19721E+01     0.000
BERM    1 000010001    1    0   58.19721E+01    14.500
BERM    1 000010001    1    0   59.19721E+01     0.000
BERM    1 000010001    1    0   60.19721E+01     0.000
BERM    1 000010001    1    0   61.19721E+01     0.000
BERM    1 000010001    1    0   62.19721E+01     0.000
BERM    1 000010001    1    0   63.19721E+01     0.000
BERM    1 000010001    1    0   64.19721E+01     0.000
BERM    1 000010001    1    0   65.19721E+01    26.300
BERM    1 000010001    1    0   66.19721E+01     0.000
BERM    1 000010001    1    0   67.19721E+01     0.000
BERM    1 000010001    1    0   68.19721E+01    29.200
BERM    1 000010001    1    0   69.19721E+01     2.600
BERM    1 000010001    1    0   70.19721E+01     0.000
BERM    1 000010001    1    0   71.19721E+01     0.000
BERM    1 000010001    1    0   72.19721E+01     0.000
BERM    1 000010001    1    0   73.19721E+01     0.000
BERM    1 000010001    1    0   74.19721E+01     0.000
BERM    1 000010001    1    0   75.19721E+01     0.000
BERM    1 000010001    1    0   76.19721E+01    20.200
BERM    1 000010001    1    0   77.19721E+01     0.000
BERM    1 000010001    1    0   78.19721E+01     0.000
BERM    1 000010001    1    0   79.19721E+01     0.000
BERM    1 000010001    1    0   80.19721E+01     2.600
BERM    1 000010001    1    0   81.19721E+01     0.000
BERM    1 000010001    1    0   82.19721E+01     0.000
BERM    1 000010001    1    0   83.19721E+01     0.000
BERM    1 000010001    1    0   84.19721E+01     0.000
BERM    1 000010001    1    0   85.19721E+01     0.000
BERM    1 000010001    1    0   86.19721E+01     0.000
BERM    1 000010001    1    0   87.19721E+01     0.000
BERM    1 000010001    1    0   88.19721E+01     0.000
BERM    1 000010001    1    0   89.19721E+01     0.000
BERM    1 000010001    1    0   90.19721E+01     1.900
BERM    1 000010001    1    0   91.19721E+01     8.400
BERM    1 000010001    1    0   92.19721E+01    14.900
BERM    1 000010001    1    0   93.19721E+01     0.000
BERM    1 000010001    1    0   94.19721E+01     0.000
BERM    1 000010001    1    0   95.19721E+01     6.100
BERM    1 000010001    1    0   96.19721E+01    17.000
BERM    1 000010001    1    0   97.19721E+01     5.000
BERM    1 000010001    1    0   98.19721E+01     0.000
BERM    1 000010001    1    0   99.19721E+01     0.000
BERM    1 000010001    1    0  100.19721E+01     0.000
BERM    1 000010001    1    0  101.19721E+01     0.000
BERM    1 000010001    1    0  102.19721E+01     0.000
BERM    1 000010001    1    0  103.19721E+01     0.000
BERM    1 000010001    1    0  104.19721E+01     2.000
BERM    1 000010001    1    0  105.19721E+01     0.000
BERM    1 000010001    1    0  106.19721E+01     0.300
BERM    1 000010001    1    0  107.19721E+01     0.000
BERM    1 000010001    1    0  108.19721E+01     0.000
BERM    1 000010001    1    0  109.19721E+01     0.000
BERM    1 000010001    1    0  110.19721E+01     0.000
BERM    1 000010001    1    0  111.19721E+01     5.000
BERM    1 000010001    1    0  112.19721E+01     3.900
BERM    1 000010001    1    0  113.19721E+01     0.600
BERM    1 000010001    1    0  114.19721E+01     7.900
BERM    1 000010001    1    0  115.19721E+01     0.000
BERM    1 000010001    1    0  116.19721E+01     0.000
BERM    1 000010001    1    0  117.19721E+01     0.000
BERM    1 000010001    1    0  118.19721E+01     0.000
BERM    1 000010001    1    0  119.19721E+01    34.700
BERM    1 000010001    1    0  120.19721E+01    18.900
BERM    1 000010001    1    0  121.19721E+01     0.000
BERM    1 000010001    1    0  122.19721E+01     0.000
BERM    1 000010001    1    0  123.19721E+01     0.000
BERM    1 000010001    1    0  124.19721E+01     0.000
BERM    1 000010001    1    0  125.19721E+01     0.000
BERM    1 000010001    1    0  126.19721E+01     0.000
BERM    1 000010001    1    0  127.19721E+01     0.000
BERM    1 000010001    1    0  128.19721E+01     0.000
BERM    1 000010001    1    0  129.19721E+01     0.000
BERM    1 000010001    1    0  130.19721E+01     9.200
BERM    1 000010001    1    0  131.19721E+01     6.900
BERM    1 000010001    1    0  132.19721E+01     0.000
BERM    1 000010001    1    0  133.19721E+01    21.800
BERM    1 000010001    1    0  134.19721E+01     0.000
BERM    1 000010001    1    0  135.19721E+01     0.000
BERM    1 000010001    1    0  136.19721E+01     0.700
BERM    1 000010001    1    0  137.19721E+01     4.800
BERM    1 000010001    1    0  138.19721E+01     8.900
BERM    1 000010001    1    0  139.19721E+01     0.000
BERM    1 000010001    1    0  140.19721E+01    12.200
BERM    1 000010001    1    0  141.19721E+01     0.000
BERM    1 000010001    1    0  142.19721E+01     9.500
BERM    1 000010001    1    0  143.19721E+01     0.000
BERM    1 000010001    1    0  144.19721E+01     0.000
BERM    1 000010001    1    0  145.19721E+01     0.000
BERM    1 000010001    1    0  146.19721E+01     0.000
BERM    1 000010001    1    0  147.19721E+01     0.000
BERM    1 000010001    1    0  148.19721E+01     0.000
BERM    1 000010001    1    0  149.19721E+01     2.600
BERM    1 000010001    1    0  150.19721E+01     6.400
BERM    1 000010001    1    0  151.19721E+01     0.000
BERM    1 000010001    1    0  152.19721E+01     0.000
BERM    1 000010001    1    0  153.19721E+01     0.000
BERM    1 000010001    1    0  154.19721E+01     2.500
BERM    1 000010001    1    0  155.19721E+01     0.000
BERM    1 000010001    1    0  156.19721E+01     0.200
BERM    1 000010001    1    0  157.19721E+01     0.000
BERM    1 000010001    1    0  158.19721E+01     0.000
BERM    1 000010001    1    0  159.19721E+01     0.000
BERM    1 000010001    1    0  160.19721E+01     0.000
BERM    1 000010001    1    0  161.19721E+01     0.000
BERM    1 000010001    1    0  162.19721E+01     0.000
BERM    1 000010001    1    0  163.19721E+01     0.000
BERM    1 000010001    1    0  164.19721E+01     0.000
BERM    1 000010001    1    0  165.19721E+01     0.000
BERM    1 000010001    1    0  166.19721E+01     0.000
BERM    1 000010001    1    0  167.19721E+01    20.900
BERM    1 000010001    1    0  168.19721E+01     0.300
BERM    1 000010001    1    0  169.19721E+01     1.500
BERM    1 000010001    1    0  170.19721E+01     0.000
BERM    1 000010001    1    0  171.19721E+01     0.000
BERM    1 000010001    1    0  172.19721E+01     4.700
BERM    1 000010001    1    0  173.19721E+01     0.000
BERM    1 000010001    1    0  174.19721E+01    19.300
BERM    1 000010001    1    0  175.19721E+01     2.200
BERM    1 000010001    1    0  176.19721E+01     5.300
BERM    1 000010001    1    0  177.19721E+01     0.000
BERM    1 000010001    1    0  178.19721E+01     0.000
BERM    1 000010001    1    0  179.19721E+01     0.000
BERM    1 000010001    1    0  180.19721E+01     4.700
BERM    1 000010001    1    0  181.19721E+01     0.000
BERM    1 000010001    1    0  182.19721E+01    22.100
BERM    1 000010001    1    0  183.19721E+01     0.000
BERM    1 000010001    1    0  184.19721E+01     0.000
BERM    1 000010001    1    0  185.19721E+01     0.000
BERM    1 000010001    1    0  186.19721E+01     0.000
BERM    1 000010001    1    0  187.19721E+01    26.700
BERM    1 000010001    1    0  188.19721E+01     6.500
BERM    1 000010001    1    0  189.19721E+01    18.400
BERM    1 000010001    1    0  190.19721E+01     0.000
BERM    1 000010001    1    0  191.19721E+01     0.200
BERM    1 000010001    1    0  192.19721E+01    11.600
BERM    1 000010001    1    0  193.19721E+01     0.200
BERM    1 000010001    1    0  194.19721E+01     0.000
BERM    1 000010001    1    0  195.19721E+01     0.000
BERM    1 000010001    1    0  196.19721E+01     0.300
BERM    1 000010001    1    0  197.19721E+01     5.200
BERM    1 000010001    1    0  198.19721E+01     0.000
BERM    1 000010001    1    0  199.19721E+01     0.000
BERM    1 000010001    1    0  200.19721E+01     0.000
BERM    1 000010001    1    0  201.19721E+01     6.500
BERM    1 000010001    1    0  202.19721E+01    11.700
BERM    1 000010001    1    0  203.19721E+01     0.000
BERM    1 000010001    1    0  204.19721E+01     0.000
BERM    1 000010001    1    0  205.19721E+01     1.900
BERM    1 000010001    1    0  206.19721E+01     2.900
BERM    1 000010001    1    0  207.19721E+01     0.000
BERM    1 000010001    1    0  208.19721E+01     0.000
BERM    1 000010001    1    0  209.19721E+01     0.000
BERM    1 000010001    1    0  210.19721E+01     2.000
BERM    1 000010001    1    0  211.19721E+01     0.000
BERM    1 000010001    1    0  212.19721E+01     0.000
BERM    1 000010001    1    0  213.19721E+01     2.100
BERM    1 000010001    1    0  214.19721E+01     1.700
BERM    1 000010001    1    0  215.19721E+01     0.000
BERM    1 000010001    1    0  216.19721E+01     0.600
BERM    1 000010001    1    0  217.19721E+01     0.000
BERM    1 000010001    1    0  218.19721E+01     0.000
BERM    1 000010001    1    0  219.19721E+01     0.000
BERM    1 000010001    1    0  220.19721E+01     0.000
BERM    1 000010001    1    0  221.19721E+01     0.000
BERM    1 000010001    1    0  222.19721E+01     0.000
BERM    1 000010001    1    0  223.19721E+01     0.000
BERM    1 000010001    1    0  224.19721E+01     2.400
BERM    1 000010001    1    0  225.19721E+01     0.000
BERM    1 000010001    1    0  226.19721E+01     0.000
BERM    1 000010001    1    0  227.19721E+01     6.900
BERM    1 000010001    1    0  228.19721E+01     0.000
BERM    1 000010001    1    0  229.19721E+01    16.700
BERM    1 000010001    1    0  230.19721E+01     0.000
BERM    1 000010001    1    0  231.19721E+01     0.100
BERM    1 000010001    1    0  232.19721E+01     0.000
BERM    1 000010001    1    0  233.19721E+01     0.000
BERM    1 000010001    1    0  234.19721E+01     3.800
BERM    1 000010001    1    0  235.19721E+01     0.000
BERM    1 000010001    1    0  236.19721E+01     0.000
BERM    1 000010001    1    0  237.19721E+01     0.000
BERM    1 000010001    1    0  238.19721E+01     0.000
BERM    1 000010001    1    0  239.19721E+01     0.600
BERM    1 000010001    1    0  240.19721E+01     6.400
BERM    1 000010001    1    0  241.19721E+01    54.300
BERM    1 000010001    1    0  242.19721E+01     0.000
BERM    1 000010001    1    0  243.19721E+01     0.000
BERM    1 000010001    1    0  244.19721E+01    35.100
BERM    1 000010001    1    0  245.19721E+01     8.700
BERM    1 000010001    1    0  246.19721E+01     0.000
BERM    1 000010001    1    0  247.19721E+01     0.000
BERM    1 000010001    1    0  248.19721E+01     0.000
BERM    1 000010001    1    0  249.19721E+01     0.000
BERM    1 000010001    1    0  250.19721E+01   118.100
BERM    1 000010001    1    0  251.19721E+01    16.100
BERM    1 000010001    1    0  252.19721E+01     0.000
BERM    1 000010001    1    0  253.19721E+01     0.000
BERM    1 000010001    1    0  254.19721E+01     0.500
BERM    1 000010001    1    0  255.19721E+01     3.400
BERM    1 000010001    1    0  256.19721E+01     0.000
BERM    1 000010001    1    0  257.19721E+01     0.000
BERM    1 000010001    1    0  258.19721E+01     0.000
BERM    1 000010001    1    0  259.19721E+01     0.000
BERM    1 000010001    1    0  260.19721E+01     1.000
BERM    1 000010001    1    0  261.19721E+01    29.400
BERM    1 000010001    1    0  262.19721E+01     0.000
BERM    1 000010001    1    0  263.19721E+01     0.000
BERM    1 000010001    1    0  264.19721E+01     0.000
BERM    1 000010001    1    0  265.19721E+01     0.000
BERM    1 000010001    1    0  266.19721E+01     1.100
BERM    1 000010001    1    0  267.19721E+01     0.000
BERM    1 000010001    1    0  268.19721E+01     0.000
BERM    1 000010001    1    0  269.19721E+01     0.200
BERM    1 000010001    1    0  270.19721E+01    23.400
BERM    1 000010001    1    0  271.19721E+01     2.900
BERM    1 000010001    1    0  272.19721E+01     7.100
BERM    1 000010001    1    0  273.19721E+01     0.600
BERM    1 000010001    1    0  274.19721E+01     0.000
BERM    1 000010001    1    0  275.19721E+01    11.200
BERM    1 000010001    1    0  276.19721E+01     0.500
BERM    1 000010001    1    0  277.19721E+01     0.000
BERM    1 000010001    1    0  278.19721E+01     0.000
BERM    1 000010001    1    0  279.19721E+01     0.000
BERM    1 000010001    1    0  280.19721E+01     0.000
BERM    1 000010001    1    0  281.19721E+01     0.000
BERM    1 000010001    1    0  282.19721E+01     0.000
BERM    1 000010001    1    0  283.19721E+01     0.000
BERM    1 000010001    1    0  284.19721E+01     0.100
BERM    1 000010001    1    0  285.19721E+01     0.600
BERM    1 000010001    1    0  286.19721E+01     0.000
BERM    1 000010001    1    0  287.19721E+01     0.000
BERM    1 000010001    1    0  288.19721E+01     0.000
BERM    1 000010001    1    0  289.19721E+01     0.000
BERM    1 000010001    1    0  290.19721E+01     0.000
BERM    1 000010001    1    0  291.19721E+01     0.000
BERM    1 000010001    1    0  292.19721E+01    21.700
BERM    1 000010001    1    0  293.19721E+01     0.000
BERM    1 000010001    1    0  294.19721E+01     0.000
BERM    1 000010001    1    0  295.19721E+01     0.000
BERM    1 000010001    1    0  296.19721E+01     0.000
BERM    1 000010001    1    0  297.19721E+01     0.000
BERM    1 000010001    1    0  298.19721E+01     0.000
BERM    1 000010001    1    0  299.19721E+01     1.800
BERM    1 000010001    1    0  300.19721E+01     0.000
BERM    1 000010001    1    0  301.19721E+01     0.000
BERM    1 000010001    1    0  302.19721E+01     0.200
BERM    1 000010001    1    0  303.19721E+01     0.000
BERM    1 000010001    1    0  304.19721E+01     0.000
BERM    1 000010001    1    0  305.19721E+01     0.000
BERM    1 000010001    1    0  306.19721E+01     0.000
BERM    1 000010001    1    0  307.19721E+01     0.000
BERM    1 000010001    1    0  308.19721E+01     0.000
BERM    1 000010001    1    0  309.19721E+01     5.200
BERM    1 000010001    1    0  310.19721E+01     5.800
BERM    1 000010001    1    0  311.19721E+01     0.000
BERM    1 000010001    1    0  312.19721E+01     0.000
BERM    1 000010001    1    0  313.19721E+01     0.300
BERM    1 000010001    1    0  314.19721E+01     0.900
BERM    1 000010001    1    0  315.19721E+01     0.000
BERM    1 000010001    1    0  316.19721E+01     0.000
BERM    1 000010001    1    0  317.19721E+01     0.000
BERM    1 000010001    1    0  318.19721E+01     0.000
BERM    1 000010001    1    0  319.19721E+01     1.900
BERM    1 000010001    1    0  320.19721E+01    27.000
BERM    1 000010001    1    0  321.19721E+01     0.800
BERM    1 000010001    1    0  322.19721E+01     0.000
BERM    1 000010001    1    0  323.19721E+01     0.000
BERM    1 000010001    1    0  324.19721E+01     0.000
BERM    1 000010001    1    0  325.19721E+01     0.000
BERM    1 000010001    1    0  326.19721E+01     0.800
BERM    1 000010001    1    0  327.19721E+01     0.000
BERM    1 000010001    1    0  328.19721E+01     0.000
BERM    1 000010001    1    0  329.19721E+01     0.000
BERM    1 000010001    1    0  330.19721E+01     7.100
BERM    1 000010001    1    0  331.19721E+01     0.000
BERM    1 000010001    1    0  332.19721E+01     0.000
BERM    1 000010001    1    0  333.19721E+01     0.000
BERM    1 000010001    1    0  334.19721E+01     0.000
BERM    1 000010001    1    0  335.19721E+01    14.400
BERM    1 000010001    1    0  336.19721E+01    14.600
BERM    1 000010001    1    0  337.19721E+01     0.000
BERM    1 000010001    1    0  338.19721E+01     0.000
BERM    1 000010001    1    0  339.19721E+01     0.000
BERM    1 000010001    1    0  340.19721E+01     0.000
BERM    1 000010001    1    0  341.19721E+01     0.000
BERM    1 000010001    1    0  342.19721E+01     0.000
BERM    1 000010001    1    0  343.19721E+01     0.000
BERM    1 000010001    1    0  344.19721E+01     0.000
BERM    1 000010001    1    0  345.19721E+01     0.300
BERM    1 000010001    1    0  346.19721E+01    10.600
BERM    1 000010001    1    0  347.19721E+01    36.600
BERM    1 000010001    1    0  348.19721E+01     0.000
BERM    1 000010001    1    0  349.19721E+01     0.000
BERM    1 000010001    1    0  350.19721E+01     0.000
BERM    1 000010001    1    0  351.19721E+01     0.000
BERM    1 000010001    1    0  352.19721E+01     0.000
BERM    1 000010001    1    0  353.19721E+01     0.000
BERM    1 000010001    1    0  354.19721E+01     0.000
BERM    1 000010001    1    0  355.19721E+01     0.000
BERM    1 000010001    1    0  356.19721E+01    20.400
BERM    1 000010001    1    0  357.19721E+01     9.700
BERM    1 000010001    1    0  358.19721E+01     0.000
BERM    1 000010001    1    0  359.19721E+01     0.000
BERM    1 000010001    1    0  360.19721E+01     5.600
BERM    1 000010001    1    0  361.19721E+01     0.800
BERM    1 000010001    1    0  362.19721E+01     0.000
BERM    1 000010001    1    0  363.19721E+01     0.000
BERM    1 000010001    1    0  364.19721E+01     3.400
BERM    1 000010001    1    0  365.19721E+01     0.000
