1
    SWAT Dec 6 2013    VER 2012/Rev 613                                                                  0/ 0/   0      0: 0: 0

    General Input/Output section (file.cio):                                        
    2/7/2013 12:00:00 AM ARCGIS-SWAT interface AV                                   
                                                                                    


       RCH      GIS   MON     AREAkm2  FLOW_INcms FLOW_OUTcms
REACH    1        0     1  0.2495E+02  0.9289E-03  0.8889E-03  0.1401E-44
REACH    2        0     1  0.5464E+02  0.3847E-02  0.2578E-02  0.2803E-44
REACH    3        0     1  0.1361E+02  0.3585E+00  0.3583E+00  0.4204E-44
REACH    4        0     1  0.9257E+02  0.9368E+00  0.9353E+00  0.5605E-44
REACH    1        0     2  0.2495E+02  0.9051E-03  0.8490E-03  0.1401E-44
REACH    2        0     2  0.5464E+02  0.3703E-02  0.2449E-02  0.2803E-44
REACH    3        0     2  0.1361E+02  0.2394E+00  0.2390E+00  0.4204E-44
REACH    4        0     2  0.9257E+02  0.7389E+00  0.7363E+00  0.5605E-44
REACH    1        0     3  0.2495E+02  0.8831E-03  0.8225E-03  0.1401E-44
REACH    2        0     3  0.5464E+02  0.3577E-02  0.2139E-02  0.2803E-44
REACH    3        0     3  0.1361E+02  0.2420E+00  0.2415E+00  0.4204E-44
REACH    4        0     3  0.9257E+02  0.7456E+00  0.7429E+00  0.5605E-44
REACH    1        0     4  0.2495E+02  0.8621E-03  0.8058E-03  0.1401E-44
REACH    2        0     4  0.5464E+02  0.3465E-02  0.2028E-02  0.2803E-44
REACH    3        0     4  0.1361E+02  0.2444E+00  0.2440E+00  0.4204E-44
REACH    4        0     4  0.9257E+02  0.7521E+00  0.7495E+00  0.5605E-44
REACH    1        0     5  0.2495E+02  0.1276E+00  0.1276E+00  0.1401E-44
REACH    2        0     5  0.5464E+02  0.2571E+00  0.2579E+00  0.2803E-44
REACH    3        0     5  0.1361E+02  0.2697E+00  0.2694E+00  0.4204E-44
REACH    4        0     5  0.9257E+02  0.1049E+01  0.1048E+01  0.5605E-44
REACH    1        0     6  0.2495E+02  0.1714E-02  0.1620E-02  0.1401E-44
REACH    2        0     6  0.5464E+02  0.4626E-02  0.1075E-02  0.2803E-44
REACH    3        0     6  0.1361E+02  0.2544E+00  0.2538E+00  0.4204E-44
REACH    4        0     6  0.9257E+02  0.7717E+00  0.7678E+00  0.5605E-44
REACH    1        0     7  0.2495E+02  0.1207E-02  0.1131E-02  0.1401E-44
REACH    2        0     7  0.5464E+02  0.3898E-02  0.1614E-02  0.2803E-44
REACH    3        0     7  0.1361E+02  0.2509E+00  0.2503E+00  0.4204E-44
REACH    4        0     7  0.9257E+02  0.7688E+00  0.7654E+00  0.5605E-44
REACH    1        0     8  0.2495E+02  0.6231E-01  0.6230E-01  0.1401E-44
REACH    2        0     8  0.5464E+02  0.1262E+00  0.1275E+00  0.2803E-44
REACH    3        0     8  0.1361E+02  0.2559E+00  0.2557E+00  0.4204E-44
REACH    4        0     8  0.9257E+02  0.9040E+00  0.9028E+00  0.5605E-44
REACH    1        0     9  0.2495E+02  0.3400E-01  0.3400E-01  0.1401E-44
REACH    2        0     9  0.5464E+02  0.6929E-01  0.6908E-01  0.2803E-44
REACH    3        0     9  0.1361E+02  0.2531E+00  0.2529E+00  0.4204E-44
REACH    4        0     9  0.9257E+02  0.8422E+00  0.8409E+00  0.5605E-44
REACH    1        0    10  0.2495E+02  0.1617E-02  0.1607E-02  0.1401E-44
REACH    2        0    10  0.5464E+02  0.4815E-02  0.2242E-02  0.2803E-44
REACH    3        0    10  0.1361E+02  0.2536E+00  0.2535E+00  0.4204E-44
REACH    4        0    10  0.9257E+02  0.7764E+00  0.7758E+00  0.5605E-44
REACH    1        0    11  0.2495E+02  0.1218E-02  0.1211E-02  0.1401E-44
REACH    2        0    11  0.5464E+02  0.4265E-02  0.3950E-02  0.2803E-44
REACH    3        0    11  0.1361E+02  0.2537E+00  0.2537E+00  0.4204E-44
REACH    4        0    11  0.9257E+02  0.7779E+00  0.7776E+00  0.5605E-44
REACH    1        0    12  0.2495E+02  0.3307E+00  0.3307E+00  0.1401E-44
REACH    2        0    12  0.5464E+02  0.6617E+00  0.6625E+00  0.2803E-44
REACH    3        0    12  0.1361E+02  0.1023E+01  0.1023E+01  0.4204E-44
REACH    4        0    12  0.9257E+02  0.3121E+01  0.3119E+01  0.5605E-44
REACH    1        0    13  0.2495E+02  0.4544E-02  0.4476E-02  0.1401E-44
REACH    2        0    13  0.5464E+02  0.9304E-02  0.5876E-02  0.2803E-44
REACH    3        0    13  0.1361E+02  0.3427E+00  0.3422E+00  0.4204E-44
REACH    4        0    13  0.9257E+02  0.9338E+00  0.9310E+00  0.5605E-44
REACH    1        0    14  0.2495E+02  0.2616E-02  0.2572E-02  0.1401E-44
REACH    2        0    14  0.5464E+02  0.6865E-02  0.5484E-02  0.2803E-44
REACH    3        0    14  0.1361E+02  0.2652E+00  0.2649E+00  0.4204E-44
REACH    4        0    14  0.9257E+02  0.8120E+00  0.8100E+00  0.5605E-44
REACH    1        0    15  0.2495E+02  0.1838E-02  0.1751E-02  0.1401E-44
REACH    2        0    15  0.5464E+02  0.5871E-02  0.3922E-02  0.2803E-44
REACH    3        0    15  0.1361E+02  0.2687E+00  0.2681E+00  0.4204E-44
REACH    4        0    15  0.9257E+02  0.8201E+00  0.8162E+00  0.5605E-44
REACH    1        0    16  0.2495E+02  0.1437E-02  0.1366E-02  0.1401E-44
REACH    2        0    16  0.5464E+02  0.5322E-02  0.3393E-02  0.2803E-44
REACH    3        0    16  0.1361E+02  0.2720E+00  0.2715E+00  0.4204E-44
REACH    4        0    16  0.9257E+02  0.8288E+00  0.8255E+00  0.5605E-44
REACH    1        0    17  0.2495E+02  0.1221E-02  0.1183E-02  0.1401E-44
REACH    2        0    17  0.5464E+02  0.4983E-02  0.3720E-02  0.2803E-44
REACH    3        0    17  0.1361E+02  0.2749E+00  0.2746E+00  0.4204E-44
REACH    4        0    17  0.9257E+02  0.8371E+00  0.8353E+00  0.5605E-44
REACH    1        0    18  0.2495E+02  0.5369E+00  0.5368E+00  0.1401E-44
REACH    2        0    18  0.5464E+02  0.1076E+01  0.1078E+01  0.2803E-44
REACH    3        0    18  0.1361E+02  0.2772E+00  0.2770E+00  0.4204E-44
REACH    4        0    18  0.9257E+02  0.1917E+01  0.1916E+01  0.5605E-44
REACH    1        0    19  0.2495E+02  0.5293E-02  0.5223E-02  0.1401E-44
REACH    2        0    19  0.5464E+02  0.1122E-01  0.8171E-02  0.2803E-44
REACH    3        0    19  0.1361E+02  0.2850E+00  0.2844E+00  0.4204E-44
REACH    4        0    19  0.9257E+02  0.8614E+00  0.8582E+00  0.5605E-44
REACH    1        0    20  0.2495E+02  0.2949E-02  0.2894E-02  0.1401E-44
REACH    2        0    20  0.5464E+02  0.8089E-02  0.6200E-02  0.2803E-44
REACH    3        0    20  0.1361E+02  0.2803E+00  0.2800E+00  0.4204E-44
REACH    4        0    20  0.9257E+02  0.8537E+00  0.8519E+00  0.5605E-44
REACH    1        0    21  0.2495E+02  0.2080E-02  0.2045E-02  0.1401E-44
REACH    2        0    21  0.5464E+02  0.7024E-02  0.5917E-02  0.2803E-44
REACH    3        0    21  0.1361E+02  0.2896E+00  0.2896E+00  0.4204E-44
REACH    4        0    21  0.9257E+02  0.8685E+00  0.8682E+00  0.5605E-44
REACH    1        0    22  0.2495E+02  0.1633E-02  0.1579E-02  0.1401E-44
REACH    2        0    22  0.5464E+02  0.6354E-02  0.5056E-02  0.2803E-44
REACH    3        0    22  0.1361E+02  0.3738E+00  0.3734E+00  0.4204E-44
REACH    4        0    22  0.9257E+02  0.9967E+00  0.9943E+00  0.5605E-44
REACH    1        0    23  0.2495E+02  0.1392E-02  0.1298E-02  0.1401E-44
REACH    2        0    23  0.5464E+02  0.5879E-02  0.3776E-02  0.2803E-44
REACH    3        0    23  0.1361E+02  0.2847E+00  0.2840E+00  0.4204E-44
REACH    4        0    23  0.9257E+02  0.8624E+00  0.8582E+00  0.5605E-44
REACH    1        0    24  0.2495E+02  0.1254E-02  0.1162E-02  0.1401E-44
REACH    2        0    24  0.5464E+02  0.5559E-02  0.3230E-02  0.2803E-44
REACH    3        0    24  0.1361E+02  0.3309E+00  0.3304E+00  0.4204E-44
REACH    4        0    24  0.9257E+02  0.9346E+00  0.9309E+00  0.5605E-44
REACH    1        0    25  0.2495E+02  0.1280E+00  0.1279E+00  0.1401E-44
REACH    2        0    25  0.5464E+02  0.2591E+00  0.2595E+00  0.2803E-44
REACH    3        0    25  0.1361E+02  0.2879E+00  0.2874E+00  0.4204E-44
REACH    4        0    25  0.9257E+02  0.1127E+01  0.1124E+01  0.5605E-44
REACH    1        0    26  0.2495E+02  0.2005E-02  0.1973E-02  0.1401E-44
REACH    2        0    26  0.5464E+02  0.6585E-02  0.3578E-02  0.2803E-44
REACH    3        0    26  0.1361E+02  0.2888E+00  0.2886E+00  0.4204E-44
REACH    4        0    26  0.9257E+02  0.8739E+00  0.8724E+00  0.5605E-44
REACH    1        0    27  0.2495E+02  0.1475E-02  0.1460E-02  0.1401E-44
REACH    2        0    27  0.5464E+02  0.5755E-02  0.5337E-02  0.2803E-44
REACH    3        0    27  0.1361E+02  0.2895E+00  0.2894E+00  0.4204E-44
REACH    4        0    27  0.9257E+02  0.8772E+00  0.8765E+00  0.5605E-44
REACH    1        0    28  0.2495E+02  0.1271E-02  0.1219E-02  0.1401E-44
REACH    2        0    28  0.5464E+02  0.5343E-02  0.4277E-02  0.2803E-44
REACH    3        0    28  0.1361E+02  0.2897E+00  0.2893E+00  0.4204E-44
REACH    4        0    28  0.9257E+02  0.8761E+00  0.8737E+00  0.5605E-44
REACH    1        0    29  0.2495E+02  0.1157E-02  0.1091E-02  0.1401E-44
REACH    2        0    29  0.5464E+02  0.5054E-02  0.3490E-02  0.2803E-44
REACH    3        0    29  0.1361E+02  0.2895E+00  0.2890E+00  0.4204E-44
REACH    4        0    29  0.9257E+02  0.8742E+00  0.8712E+00  0.5605E-44
REACH    1        0    30  0.2495E+02  0.1087E-02  0.1011E-02  0.1401E-44
REACH    2        0    30  0.5464E+02  0.4819E-02  0.3005E-02  0.2803E-44
REACH    3        0    30  0.1361E+02  0.2889E+00  0.2884E+00  0.4204E-44
REACH    4        0    30  0.9257E+02  0.8715E+00  0.8680E+00  0.5605E-44
REACH    1        0    31  0.2495E+02  0.1039E-02  0.9582E-03  0.1401E-44
REACH    2        0    31  0.5464E+02  0.4619E-02  0.2644E-02  0.2803E-44
REACH    3        0    31  0.1361E+02  0.2879E+00  0.2873E+00  0.4204E-44
REACH    4        0    31  0.9257E+02  0.8678E+00  0.8641E+00  0.5605E-44
REACH    1        0    32  0.2495E+02  0.1004E-02  0.9534E-03  0.1401E-44
REACH    2        0    32  0.5464E+02  0.4474E-02  0.2912E-02  0.2803E-44
REACH    3        0    32  0.1361E+02  0.3199E+00  0.3198E+00  0.4204E-44
REACH    4        0    32  0.9257E+02  0.9151E+00  0.9141E+00  0.5605E-44
REACH    1        0    33  0.2495E+02  0.9740E-03  0.9155E-03  0.1401E-44
REACH    2        0    33  0.5464E+02  0.4303E-02  0.2899E-02  0.2803E-44
REACH    3        0    33  0.1361E+02  0.2868E+00  0.2863E+00  0.4204E-44
REACH    4        0    33  0.9257E+02  0.8621E+00  0.8594E+00  0.5605E-44
REACH    1        0    34  0.2495E+02  0.9481E-03  0.9056E-03  0.1401E-44
REACH    2        0    34  0.5464E+02  0.4166E-02  0.2942E-02  0.2803E-44
REACH    3        0    34  0.1361E+02  0.2836E+00  0.2833E+00  0.4204E-44
REACH    4        0    34  0.9257E+02  0.8545E+00  0.8526E+00  0.5605E-44
REACH    1        0    35  0.2495E+02  0.9244E-03  0.8585E-03  0.1401E-44
REACH    2        0    35  0.5464E+02  0.3998E-02  0.2579E-02  0.2803E-44
REACH    3        0    35  0.1361E+02  0.2815E+00  0.2810E+00  0.4204E-44
REACH    4        0    35  0.9257E+02  0.8477E+00  0.8447E+00  0.5605E-44
REACH    1        0    36  0.2495E+02  0.9021E-03  0.8373E-03  0.1401E-44
REACH    2        0    36  0.5464E+02  0.3861E-02  0.2262E-02  0.2803E-44
REACH    3        0    36  0.1361E+02  0.2792E+00  0.2787E+00  0.4204E-44
REACH    4        0    36  0.9257E+02  0.8402E+00  0.8373E+00  0.5605E-44
REACH    1        0    37  0.2495E+02  0.8808E-03  0.8687E-03  0.1401E-44
REACH    2        0    37  0.5464E+02  0.3782E-02  0.2894E-02  0.2803E-44
REACH    3        0    37  0.1361E+02  0.2767E+00  0.2765E+00  0.4204E-44
REACH    4        0    37  0.9257E+02  0.8334E+00  0.8322E+00  0.5605E-44
REACH    1        0    38  0.2495E+02  0.8603E-03  0.7977E-03  0.1401E-44
REACH    2        0    38  0.5464E+02  0.3605E-02  0.2540E-02  0.2803E-44
REACH    3        0    38  0.1361E+02  0.2810E+00  0.2806E+00  0.4204E-44
REACH    4        0    38  0.9257E+02  0.8353E+00  0.8331E+00  0.5605E-44
REACH    1        0    39  0.2495E+02  0.3539E+00  0.3539E+00  0.1401E-44
REACH    2        0    39  0.5464E+02  0.7106E+00  0.7110E+00  0.2803E-44
REACH    3        0    39  0.1361E+02  0.2715E+00  0.2711E+00  0.4204E-44
REACH    4        0    39  0.9257E+02  0.1525E+01  0.1522E+01  0.5605E-44
REACH    1        0    40  0.2495E+02  0.2975E-02  0.2924E-02  0.1401E-44
REACH    2        0    40  0.5464E+02  0.7002E-02  0.3679E-02  0.2803E-44
REACH    3        0    40  0.1361E+02  0.4457E+00  0.4454E+00  0.4204E-44
REACH    4        0    40  0.9257E+02  0.1108E+01  0.1106E+01  0.5605E-44
REACH    1        0    41  0.2495E+02  0.1751E-02  0.1730E-02  0.1401E-44
REACH    2        0    41  0.5464E+02  0.5283E-02  0.4490E-02  0.2803E-44
REACH    3        0    41  0.1361E+02  0.2688E+00  0.2685E+00  0.4204E-44
REACH    4        0    41  0.9257E+02  0.8106E+00  0.8087E+00  0.5605E-44
REACH    1        0    42  0.2495E+02  0.4432E+00  0.4431E+00  0.1401E-44
REACH    2        0    42  0.5464E+02  0.8871E+00  0.8880E+00  0.2803E-44
REACH    3        0    42  0.1361E+02  0.2670E+00  0.2664E+00  0.4204E-44
REACH    4        0    42  0.9257E+02  0.1689E+01  0.1685E+01  0.5605E-44
REACH    1        0    43  0.2495E+02  0.8608E-02  0.8587E-02  0.1401E-44
REACH    2        0    43  0.5464E+02  0.1735E-01  0.1684E-01  0.2803E-44
REACH    3        0    43  0.1361E+02  0.2653E+00  0.2650E+00  0.4204E-44
REACH    4        0    43  0.9257E+02  0.8128E+00  0.8110E+00  0.5605E-44
REACH    1        0    44  0.2495E+02  0.3158E-02  0.3108E-02  0.1401E-44
REACH    2        0    44  0.5464E+02  0.8166E-02  0.4924E-02  0.2803E-44
REACH    3        0    44  0.1361E+02  0.2635E+00  0.2631E+00  0.4204E-44
REACH    4        0    44  0.9257E+02  0.7953E+00  0.7930E+00  0.5605E-44
REACH    1        0    45  0.2495E+02  0.2173E-02  0.2116E-02  0.1401E-44
REACH    2        0    45  0.5464E+02  0.6961E-02  0.5666E-02  0.2803E-44
REACH    3        0    45  0.1361E+02  0.2614E+00  0.2610E+00  0.4204E-44
REACH    4        0    45  0.9257E+02  0.7898E+00  0.7873E+00  0.5605E-44
REACH    1        0    46  0.2495E+02  0.1670E-02  0.1617E-02  0.1401E-44
REACH    2        0    46  0.5464E+02  0.6264E-02  0.4799E-02  0.2803E-44
REACH    3        0    46  0.1361E+02  0.2592E+00  0.2588E+00  0.4204E-44
REACH    4        0    46  0.9257E+02  0.7822E+00  0.7798E+00  0.5605E-44
REACH    1        0    47  0.2495E+02  0.1401E-02  0.1352E-02  0.1401E-44
REACH    2        0    47  0.5464E+02  0.5810E-02  0.4525E-02  0.2803E-44
REACH    3        0    47  0.1361E+02  0.2567E+00  0.2564E+00  0.4204E-44
REACH    4        0    47  0.9257E+02  0.7746E+00  0.7724E+00  0.5605E-44
REACH    1        0    48  0.2495E+02  0.1249E-02  0.1205E-02  0.1401E-44
REACH    2        0    48  0.5464E+02  0.5483E-02  0.4312E-02  0.2803E-44
REACH    3        0    48  0.1361E+02  0.2541E+00  0.2537E+00  0.4204E-44
REACH    4        0    48  0.9257E+02  0.7664E+00  0.7644E+00  0.5605E-44
REACH    1        0    49  0.2495E+02  0.4342E+00  0.4342E+00  0.1401E-44
REACH    2        0    49  0.5464E+02  0.8709E+00  0.8716E+00  0.2803E-44
REACH    3        0    49  0.1361E+02  0.2512E+00  0.2507E+00  0.4204E-44
REACH    4        0    49  0.9257E+02  0.1625E+01  0.1622E+01  0.5605E-44
REACH    1        0    50  0.2495E+02  0.5164E-01  0.5157E-01  0.1401E-44
REACH    2        0    50  0.5464E+02  0.1038E+00  0.1020E+00  0.2803E-44
REACH    3        0    50  0.1361E+02  0.2483E+00  0.2476E+00  0.4204E-44
REACH    4        0    50  0.9257E+02  0.8463E+00  0.8423E+00  0.5605E-44
REACH    1        0    51  0.2495E+02  0.3619E-02  0.3502E-02  0.1401E-44
REACH    2        0    51  0.5464E+02  0.9312E-02  0.4929E-02  0.2803E-44
REACH    3        0    51  0.1361E+02  0.2451E+00  0.2443E+00  0.4204E-44
REACH    4        0    51  0.9257E+02  0.7398E+00  0.7345E+00  0.5605E-44
REACH    1        0    52  0.2495E+02  0.2444E-02  0.2316E-02  0.1401E-44
REACH    2        0    52  0.5464E+02  0.7836E-02  0.4677E-02  0.2803E-44
REACH    3        0    52  0.1361E+02  0.1339E+01  0.1338E+01  0.4204E-44
REACH    4        0    52  0.9257E+02  0.3166E+01  0.3161E+01  0.5605E-44
REACH    1        0    53  0.2495E+02  0.1871E-02  0.1800E-02  0.1401E-44
REACH    2        0    53  0.5464E+02  0.7090E-02  0.4863E-02  0.2803E-44
REACH    3        0    53  0.1361E+02  0.2468E+00  0.2464E+00  0.4204E-44
REACH    4        0    53  0.9257E+02  0.7456E+00  0.7433E+00  0.5605E-44
REACH    1        0    54  0.2495E+02  0.1567E-02  0.1503E-02  0.1401E-44
REACH    2        0    54  0.5464E+02  0.6577E-02  0.4900E-02  0.2803E-44
REACH    3        0    54  0.1361E+02  0.2451E+00  0.2446E+00  0.4204E-44
REACH    4        0    54  0.9257E+02  0.7407E+00  0.7377E+00  0.5605E-44
REACH    1        0    55  0.2495E+02  0.3677E+00  0.3677E+00  0.1401E-44
REACH    2        0    55  0.5464E+02  0.7390E+00  0.7400E+00  0.2803E-44
REACH    3        0    55  0.1361E+02  0.2448E+00  0.2444E+00  0.4204E-44
REACH    4        0    55  0.9257E+02  0.1475E+01  0.1473E+01  0.5605E-44
REACH    1        0    56  0.2495E+02  0.4013E-02  0.3901E-02  0.1401E-44
REACH    2        0    56  0.5464E+02  0.1020E-01  0.6009E-02  0.2803E-44
REACH    3        0    56  0.1361E+02  0.2443E+00  0.2435E+00  0.4204E-44
REACH    4        0    56  0.9257E+02  0.7394E+00  0.7343E+00  0.5605E-44
REACH    1        0    57  0.2495E+02  0.2470E-02  0.2367E-02  0.1401E-44
REACH    2        0    57  0.5464E+02  0.8024E-02  0.5256E-02  0.2803E-44
REACH    3        0    57  0.1361E+02  0.2682E+00  0.2675E+00  0.4204E-44
REACH    4        0    57  0.9257E+02  0.7742E+00  0.7701E+00  0.5605E-44
REACH    1        0    58  0.2495E+02  0.1898E-02  0.1822E-02  0.1401E-44
REACH    2        0    58  0.5464E+02  0.7245E-02  0.5093E-02  0.2803E-44
REACH    3        0    58  0.1361E+02  0.2456E+00  0.2451E+00  0.4204E-44
REACH    4        0    58  0.9257E+02  0.7387E+00  0.7358E+00  0.5605E-44
REACH    1        0    59  0.2495E+02  0.1597E-02  0.1526E-02  0.1401E-44
REACH    2        0    59  0.5464E+02  0.6727E-02  0.4864E-02  0.2803E-44
REACH    3        0    59  0.1361E+02  0.2417E+00  0.2411E+00  0.4204E-44
REACH    4        0    59  0.9257E+02  0.7308E+00  0.7276E+00  0.5605E-44
REACH    1        0    60  0.2495E+02  0.1429E-02  0.1355E-02  0.1401E-44
REACH    2        0    60  0.5464E+02  0.6345E-02  0.4453E-02  0.2803E-44
REACH    3        0    60  0.1361E+02  0.2402E+00  0.2396E+00  0.4204E-44
REACH    4        0    60  0.9257E+02  0.7260E+00  0.7226E+00  0.5605E-44
REACH    1        0    61  0.2495E+02  0.1328E-02  0.1235E-02  0.1401E-44
REACH    2        0    61  0.5464E+02  0.6026E-02  0.3798E-02  0.2803E-44
REACH    3        0    61  0.1361E+02  0.2385E+00  0.2378E+00  0.4204E-44
REACH    4        0    61  0.9257E+02  0.7202E+00  0.7159E+00  0.5605E-44
REACH    1        0    62  0.2495E+02  0.1566E-01  0.1559E-01  0.1401E-44
REACH    2        0    62  0.5464E+02  0.3441E-01  0.3428E-01  0.2803E-44
REACH    3        0    62  0.1361E+02  0.2365E+00  0.2358E+00  0.4204E-44
REACH    4        0    62  0.9257E+02  0.7448E+00  0.7401E+00  0.5605E-44
REACH    1        0    63  0.2495E+02  0.1423E-02  0.1342E-02  0.1401E-44
REACH    2        0    63  0.5464E+02  0.5842E-02  0.2147E-02  0.2803E-44
REACH    3        0    63  0.1361E+02  0.2344E+00  0.2338E+00  0.4204E-44
REACH    4        0    63  0.9257E+02  0.7065E+00  0.7028E+00  0.5605E-44
REACH    1        0    64  0.2495E+02  0.1277E-02  0.1159E-02  0.1401E-44
REACH    2        0    64  0.5464E+02  0.5469E-02  0.2684E-02  0.2803E-44
REACH    3        0    64  0.1361E+02  0.2321E+00  0.2312E+00  0.4204E-44
REACH    4        0    64  0.9257E+02  0.6999E+00  0.6945E+00  0.5605E-44
REACH    1        0    65  0.2495E+02  0.1199E-02  0.1060E-02  0.1401E-44
REACH    2        0    65  0.5464E+02  0.5202E-02  0.1946E-02  0.2803E-44
REACH    3        0    65  0.1361E+02  0.2296E+00  0.2286E+00  0.4204E-44
REACH    4        0    65  0.9257E+02  0.6916E+00  0.6853E+00  0.5605E-44
REACH    1        0    66  0.2495E+02  0.5687E-01  0.5675E-01  0.1401E-44
REACH    2        0    66  0.5464E+02  0.1163E+00  0.1144E+00  0.2803E-44
REACH    3        0    66  0.1361E+02  0.3035E+00  0.3026E+00  0.4204E-44
REACH    4        0    66  0.9257E+02  0.9127E+00  0.9072E+00  0.5605E-44
REACH    1        0    67  0.2495E+02  0.1621E-02  0.1526E-02  0.1401E-44
REACH    2        0    67  0.5464E+02  0.5614E-02  0.1769E-02  0.2803E-44
REACH    3        0    67  0.1361E+02  0.3022E+00  0.3015E+00  0.4204E-44
REACH    4        0    67  0.9257E+02  0.7957E+00  0.7914E+00  0.5605E-44
REACH    1        0    68  0.2495E+02  0.1317E-02  0.1171E-02  0.1401E-44
REACH    2        0    68  0.5464E+02  0.5046E-02  0.1711E-02  0.2803E-44
REACH    3        0    68  0.1361E+02  0.2255E+00  0.2246E+00  0.4204E-44
REACH    4        0    68  0.9257E+02  0.6775E+00  0.6718E+00  0.5605E-44
REACH    1        0    69  0.2495E+02  0.2960E-02  0.2911E-02  0.1401E-44
REACH    2        0    69  0.5464E+02  0.8313E-02  0.6367E-02  0.2803E-44
REACH    3        0    69  0.1361E+02  0.2220E+00  0.2214E+00  0.4204E-44
REACH    4        0    69  0.9257E+02  0.6745E+00  0.6712E+00  0.5605E-44
REACH    1        0    70  0.2495E+02  0.1169E-02  0.1096E-02  0.1401E-44
REACH    2        0    70  0.5464E+02  0.4691E-02  0.2850E-02  0.2803E-44
REACH    3        0    70  0.1361E+02  0.2198E+00  0.2193E+00  0.4204E-44
REACH    4        0    70  0.9257E+02  0.6648E+00  0.6615E+00  0.5605E-44
REACH    1        0    71  0.2495E+02  0.1086E-02  0.9966E-03  0.1401E-44
REACH    2        0    71  0.5464E+02  0.4456E-02  0.2380E-02  0.2803E-44
REACH    3        0    71  0.1361E+02  0.2176E+00  0.2169E+00  0.4204E-44
REACH    4        0    71  0.9257E+02  0.6577E+00  0.6536E+00  0.5605E-44
REACH    1        0    72  0.2495E+02  0.1034E-02  0.8560E-03  0.1401E-44
REACH    2        0    72  0.5464E+02  0.4188E-02  0.7290E-03  0.2803E-44
REACH    3        0    72  0.1361E+02  0.2198E+00  0.2187E+00  0.4204E-44
REACH    4        0    72  0.9257E+02  0.6557E+00  0.6487E+00  0.5605E-44
REACH    1        0    73  0.2495E+02  0.9965E-03  0.8740E-03  0.1401E-44
REACH    2        0    73  0.5464E+02  0.4085E-02  0.7415E-03  0.2803E-44
REACH    3        0    73  0.1361E+02  0.2811E+00  0.2803E+00  0.4204E-44
REACH    4        0    73  0.9257E+02  0.7461E+00  0.7415E+00  0.5605E-44
REACH    1        0    74  0.2495E+02  0.9663E-03  0.8449E-03  0.1401E-44
REACH    2        0    74  0.5464E+02  0.3940E-02  0.8148E-03  0.2803E-44
REACH    3        0    74  0.1361E+02  0.2124E+00  0.2116E+00  0.4204E-44
REACH    4        0    74  0.9257E+02  0.6393E+00  0.6345E+00  0.5605E-44
REACH    1        0    75  0.2495E+02  0.9403E-03  0.8578E-03  0.1401E-44
REACH    2        0    75  0.5464E+02  0.3842E-02  0.1263E-02  0.2803E-44
REACH    3        0    75  0.1361E+02  0.4547E+00  0.4544E+00  0.4204E-44
REACH    4        0    75  0.9257E+02  0.1071E+01  0.1069E+01  0.5605E-44
REACH    1        0    76  0.2495E+02  0.9166E-03  0.8034E-03  0.1401E-44
REACH    2        0    76  0.5464E+02  0.3682E-02  0.1103E-02  0.2803E-44
REACH    3        0    76  0.1361E+02  0.2121E+00  0.2114E+00  0.4204E-44
REACH    4        0    76  0.9257E+02  0.6393E+00  0.6350E+00  0.5605E-44
REACH    1        0    77  0.2495E+02  0.3753E+00  0.3752E+00  0.1401E-44
REACH    2        0    77  0.5464E+02  0.7536E+00  0.7528E+00  0.2803E-44
REACH    3        0    77  0.1361E+02  0.2103E+00  0.2097E+00  0.4204E-44
REACH    4        0    77  0.9257E+02  0.1388E+01  0.1384E+01  0.5605E-44
REACH    1        0    78  0.2495E+02  0.1520E+01  0.1520E+01  0.1401E-44
REACH    2        0    78  0.5464E+02  0.3125E+01  0.3124E+01  0.2803E-44
REACH    3        0    78  0.1361E+02  0.2098E+00  0.2093E+00  0.4204E-44
REACH    4        0    78  0.9257E+02  0.3758E+01  0.3754E+01  0.5605E-44
REACH    1        0    79  0.2495E+02  0.1285E-01  0.1273E-01  0.1401E-44
REACH    2        0    79  0.5464E+02  0.2271E-01  0.1714E-01  0.2803E-44
REACH    3        0    79  0.1361E+02  0.2092E+00  0.2083E+00  0.4204E-44
REACH    4        0    79  0.9257E+02  0.6487E+00  0.6434E+00  0.5605E-44
REACH    1        0    80  0.2495E+02  0.1750E-01  0.1743E-01  0.1401E-44
REACH    2        0    80  0.5464E+02  0.3660E-01  0.3730E-01  0.2803E-44
REACH    3        0    80  0.1361E+02  0.2083E+00  0.2075E+00  0.4204E-44
REACH    4        0    80  0.9257E+02  0.6665E+00  0.6616E+00  0.5605E-44
REACH    1        0    81  0.2495E+02  0.4257E-02  0.4098E-02  0.1401E-44
REACH    2        0    81  0.5464E+02  0.1228E-01  0.7523E-02  0.2803E-44
REACH    3        0    81  0.1361E+02  0.2072E+00  0.2061E+00  0.4204E-44
REACH    4        0    81  0.9257E+02  0.6332E+00  0.6260E+00  0.5605E-44
REACH    1        0    82  0.2495E+02  0.2991E-02  0.2867E-02  0.1401E-44
REACH    2        0    82  0.5464E+02  0.1096E-01  0.7598E-02  0.2803E-44
REACH    3        0    82  0.1361E+02  0.4268E+00  0.4260E+00  0.4204E-44
REACH    4        0    82  0.9257E+02  0.1000E+01  0.9955E+00  0.5605E-44
REACH    1        0    83  0.2495E+02  0.2336E-02  0.2251E-02  0.1401E-44
REACH    2        0    83  0.5464E+02  0.1028E-01  0.7895E-02  0.2803E-44
REACH    3        0    83  0.1361E+02  0.2077E+00  0.2071E+00  0.4204E-44
REACH    4        0    83  0.9257E+02  0.6355E+00  0.6316E+00  0.5605E-44
REACH    1        0    84  0.2495E+02  0.1980E-02  0.1857E-02  0.1401E-44
REACH    2        0    84  0.5464E+02  0.9821E-02  0.6800E-02  0.2803E-44
REACH    3        0    84  0.1361E+02  0.2070E+00  0.2061E+00  0.4204E-44
REACH    4        0    84  0.9257E+02  0.6326E+00  0.6271E+00  0.5605E-44
REACH    1        0    85  0.2495E+02  0.1775E-02  0.1634E-02  0.1401E-44
REACH    2        0    85  0.5464E+02  0.9530E-02  0.5952E-02  0.2803E-44
REACH    3        0    85  0.1361E+02  0.2065E+00  0.2054E+00  0.4204E-44
REACH    4        0    85  0.9257E+02  0.6301E+00  0.6237E+00  0.5605E-44
REACH    1        0    86  0.2495E+02  0.1649E-02  0.1521E-02  0.1401E-44
REACH    2        0    86  0.5464E+02  0.9346E-02  0.6015E-02  0.2803E-44
REACH    3        0    86  0.1361E+02  0.2124E+00  0.2117E+00  0.4204E-44
REACH    4        0    86  0.9257E+02  0.6384E+00  0.6341E+00  0.5605E-44
REACH    1        0    87  0.2495E+02  0.1565E-02  0.1433E-02  0.1401E-44
REACH    2        0    87  0.5464E+02  0.9182E-02  0.5859E-02  0.2803E-44
REACH    3        0    87  0.1361E+02  0.2125E+00  0.2119E+00  0.4204E-44
REACH    4        0    87  0.9257E+02  0.6372E+00  0.6330E+00  0.5605E-44
REACH    1        0    88  0.2495E+02  0.1503E-02  0.1355E-02  0.1401E-44
REACH    2        0    88  0.5464E+02  0.9024E-02  0.5320E-02  0.2803E-44
REACH    3        0    88  0.1361E+02  0.2035E+00  0.2025E+00  0.4204E-44
REACH    4        0    88  0.9257E+02  0.6208E+00  0.6141E+00  0.5605E-44
REACH    1        0    89  0.2495E+02  0.1454E-02  0.1346E-02  0.1401E-44
REACH    2        0    89  0.5464E+02  0.8932E-02  0.5985E-02  0.2803E-44
REACH    3        0    89  0.1361E+02  0.2021E+00  0.2013E+00  0.4204E-44
REACH    4        0    89  0.9257E+02  0.6174E+00  0.6125E+00  0.5605E-44
REACH    1        0    90  0.2495E+02  0.8227E-02  0.8189E-02  0.1401E-44
REACH    2        0    90  0.5464E+02  0.2235E-01  0.2028E-01  0.2803E-44
REACH    3        0    90  0.1361E+02  0.2735E+00  0.2732E+00  0.4204E-44
REACH    4        0    90  0.9257E+02  0.7385E+00  0.7368E+00  0.5605E-44
REACH    1        0    91  0.2495E+02  0.1506E-02  0.1443E-02  0.1401E-44
REACH    2        0    91  0.5464E+02  0.8890E-02  0.8527E-02  0.2803E-44
REACH    3        0    91  0.1361E+02  0.1994E+00  0.1990E+00  0.4204E-44
REACH    4        0    91  0.9257E+02  0.6125E+00  0.6096E+00  0.5605E-44
REACH    1        0    92  0.2495E+02  0.1405E-02  0.1285E-02  0.1401E-44
REACH    2        0    92  0.5464E+02  0.8632E-02  0.5519E-02  0.2803E-44
REACH    3        0    92  0.1361E+02  0.1975E+00  0.1967E+00  0.4204E-44
REACH    4        0    92  0.9257E+02  0.6037E+00  0.5983E+00  0.5605E-44
REACH    1        0    93  0.2495E+02  0.1343E-02  0.1196E-02  0.1401E-44
REACH    2        0    93  0.5464E+02  0.8447E-02  0.4850E-02  0.2803E-44
REACH    3        0    93  0.1361E+02  0.1956E+00  0.1945E+00  0.4204E-44
REACH    4        0    93  0.9257E+02  0.5971E+00  0.5905E+00  0.5605E-44
REACH    1        0    94  0.2495E+02  0.1297E-02  0.1164E-02  0.1401E-44
REACH    2        0    94  0.5464E+02  0.8318E-02  0.4853E-02  0.2803E-44
REACH    3        0    94  0.1361E+02  0.1935E+00  0.1926E+00  0.4204E-44
REACH    4        0    94  0.9257E+02  0.5911E+00  0.5851E+00  0.5605E-44
REACH    1        0    95  0.2495E+02  0.1260E-02  0.1087E-02  0.1401E-44
REACH    2        0    95  0.5464E+02  0.8142E-02  0.3989E-02  0.2803E-44
REACH    3        0    95  0.1361E+02  0.1913E+00  0.1901E+00  0.4204E-44
REACH    4        0    95  0.9257E+02  0.5834E+00  0.5757E+00  0.5605E-44
REACH    1        0    96  0.2495E+02  0.1227E-02  0.1041E-02  0.1401E-44
REACH    2        0    96  0.5464E+02  0.7995E-02  0.3365E-02  0.2803E-44
REACH    3        0    96  0.1361E+02  0.1890E+00  0.1877E+00  0.4204E-44
REACH    4        0    96  0.9257E+02  0.5758E+00  0.5674E+00  0.5605E-44
REACH    1        0    97  0.2495E+02  0.1197E-02  0.1039E-02  0.1401E-44
REACH    2        0    97  0.5464E+02  0.7890E-02  0.3733E-02  0.2803E-44
REACH    3        0    97  0.1361E+02  0.1924E+00  0.1915E+00  0.4204E-44
REACH    4        0    97  0.9257E+02  0.5783E+00  0.5726E+00  0.5605E-44
REACH    1        0    98  0.2495E+02  0.1168E-02  0.1005E-02  0.1401E-44
REACH    2        0    98  0.5464E+02  0.7754E-02  0.3676E-02  0.2803E-44
REACH    3        0    98  0.1361E+02  0.2704E+00  0.2695E+00  0.4204E-44
REACH    4        0    98  0.9257E+02  0.6929E+00  0.6876E+00  0.5605E-44
REACH    1        0    99  0.2495E+02  0.1140E-02  0.9923E-03  0.1401E-44
REACH    2        0    99  0.5464E+02  0.7636E-02  0.3799E-02  0.2803E-44
REACH    3        0    99  0.1361E+02  0.1822E+00  0.1811E+00  0.4204E-44
REACH    4        0    99  0.9257E+02  0.5561E+00  0.5495E+00  0.5605E-44
REACH    1        0   100  0.2495E+02  0.9314E-01  0.9300E-01  0.1401E-44
REACH    2        0   100  0.5464E+02  0.1915E+00  0.1892E+00  0.2803E-44
REACH    3        0   100  0.1361E+02  0.1795E+00  0.1781E+00  0.4204E-44
REACH    4        0   100  0.9257E+02  0.7333E+00  0.7250E+00  0.5605E-44
REACH    1        0   101  0.2495E+02  0.1798E-02  0.1633E-02  0.1401E-44
REACH    2        0   101  0.5464E+02  0.8449E-02  0.3112E-02  0.2803E-44
REACH    3        0   101  0.1361E+02  0.1768E+00  0.1756E+00  0.4204E-44
REACH    4        0   101  0.9257E+02  0.5394E+00  0.5319E+00  0.5605E-44
REACH    1        0   102  0.2495E+02  0.1389E-02  0.1303E-02  0.1401E-44
REACH    2        0   102  0.5464E+02  0.7901E-02  0.5232E-02  0.2803E-44
REACH    3        0   102  0.1361E+02  0.1741E+00  0.1732E+00  0.4204E-44
REACH    4        0   102  0.9257E+02  0.5336E+00  0.5281E+00  0.5605E-44
REACH    1        0   103  0.2495E+02  0.2734E+00  0.2734E+00  0.1401E-44
REACH    2        0   103  0.5464E+02  0.5528E+00  0.5536E+00  0.2803E-44
REACH    3        0   103  0.1361E+02  0.1780E+00  0.1778E+00  0.4204E-44
REACH    4        0   103  0.9257E+02  0.1085E+01  0.1083E+01  0.5605E-44
REACH    1        0   104  0.2495E+02  0.2739E-02  0.2649E-02  0.1401E-44
REACH    2        0   104  0.5464E+02  0.9979E-02  0.6205E-02  0.2803E-44
REACH    3        0   104  0.1361E+02  0.1687E+00  0.1683E+00  0.4204E-44
REACH    4        0   104  0.9257E+02  0.5187E+00  0.5162E+00  0.5605E-44
REACH    1        0   105  0.2495E+02  0.1777E-02  0.1675E-02  0.1401E-44
REACH    2        0   105  0.5464E+02  0.8562E-02  0.6052E-02  0.2803E-44
REACH    3        0   105  0.1361E+02  0.1657E+00  0.1648E+00  0.4204E-44
REACH    4        0   105  0.9257E+02  0.5093E+00  0.5032E+00  0.5605E-44
REACH    1        0   106  0.2495E+02  0.4610E+00  0.4609E+00  0.1401E-44
REACH    2        0   106  0.5464E+02  0.9300E+00  0.9273E+00  0.2803E-44
REACH    3        0   106  0.1361E+02  0.1629E+00  0.1616E+00  0.4204E-44
REACH    4        0   106  0.9257E+02  0.1422E+01  0.1414E+01  0.5605E-44
REACH    1        0   107  0.2495E+02  0.4007E-02  0.3858E-02  0.1401E-44
REACH    2        0   107  0.5464E+02  0.1261E-01  0.8154E-02  0.2803E-44
REACH    3        0   107  0.1361E+02  0.1600E+00  0.1589E+00  0.4204E-44
REACH    4        0   107  0.9257E+02  0.4939E+00  0.4872E+00  0.5605E-44
REACH    1        0   108  0.2495E+02  0.2367E-02  0.2204E-02  0.1401E-44
REACH    2        0   108  0.5464E+02  0.1035E-01  0.5928E-02  0.2803E-44
REACH    3        0   108  0.1361E+02  0.1571E+00  0.1559E+00  0.4204E-44
REACH    4        0   108  0.9257E+02  0.4828E+00  0.4754E+00  0.5605E-44
REACH    1        0   109  0.2495E+02  0.1802E-02  0.1626E-02  0.1401E-44
REACH    2        0   109  0.5464E+02  0.9664E-02  0.5204E-02  0.2803E-44
REACH    3        0   109  0.1361E+02  0.1542E+00  0.1529E+00  0.4204E-44
REACH    4        0   109  0.9257E+02  0.4731E+00  0.4652E+00  0.5605E-44
REACH    1        0   110  0.2495E+02  0.1506E-02  0.1302E-02  0.1401E-44
REACH    2        0   110  0.5464E+02  0.9226E-02  0.4140E-02  0.2803E-44
REACH    3        0   110  0.1361E+02  0.1512E+00  0.1498E+00  0.4204E-44
REACH    4        0   110  0.9257E+02  0.4631E+00  0.4539E+00  0.5605E-44
REACH    1        0   111  0.2495E+02  0.1342E-02  0.1171E-02  0.1401E-44
REACH    2        0   111  0.5464E+02  0.8981E-02  0.4478E-02  0.2803E-44
REACH    3        0   111  0.1361E+02  0.1483E+00  0.1471E+00  0.4204E-44
REACH    4        0   111  0.9257E+02  0.4548E+00  0.4472E+00  0.5605E-44
REACH    1        0   112  0.2495E+02  0.1243E-02  0.1064E-02  0.1401E-44
REACH    2        0   112  0.5464E+02  0.8758E-02  0.4264E-02  0.2803E-44
REACH    3        0   112  0.1361E+02  0.1454E+00  0.1441E+00  0.4204E-44
REACH    4        0   112  0.9257E+02  0.4457E+00  0.4377E+00  0.5605E-44
REACH    1        0   113  0.2495E+02  0.1179E-02  0.9785E-03  0.1401E-44
REACH    2        0   113  0.5464E+02  0.8555E-02  0.3578E-02  0.2803E-44
REACH    3        0   113  0.1361E+02  0.1425E+00  0.1411E+00  0.4204E-44
REACH    4        0   113  0.9257E+02  0.4361E+00  0.4271E+00  0.5605E-44
REACH    1        0   114  0.2495E+02  0.1133E-02  0.9372E-03  0.1401E-44
REACH    2        0   114  0.5464E+02  0.8395E-02  0.3414E-02  0.2803E-44
REACH    3        0   114  0.1361E+02  0.1396E+00  0.1382E+00  0.4204E-44
REACH    4        0   114  0.9257E+02  0.4272E+00  0.4184E+00  0.5605E-44
REACH    1        0   115  0.2495E+02  0.1096E-02  0.9285E-03  0.1401E-44
REACH    2        0   115  0.5464E+02  0.8267E-02  0.3857E-02  0.2803E-44
REACH    3        0   115  0.1361E+02  0.1367E+00  0.1355E+00  0.4204E-44
REACH    4        0   115  0.9257E+02  0.4192E+00  0.4116E+00  0.5605E-44
REACH    1        0   116  0.2495E+02  0.1065E-02  0.8962E-03  0.1401E-44
REACH    2        0   116  0.5464E+02  0.8114E-02  0.3841E-02  0.2803E-44
REACH    3        0   116  0.1361E+02  0.1339E+00  0.1327E+00  0.4204E-44
REACH    4        0   116  0.9257E+02  0.4105E+00  0.4029E+00  0.5605E-44
REACH    1        0   117  0.2495E+02  0.1038E-02  0.9066E-03  0.1401E-44
REACH    2        0   117  0.5464E+02  0.8004E-02  0.4458E-02  0.2803E-44
REACH    3        0   117  0.1361E+02  0.2732E+00  0.2726E+00  0.4204E-44
REACH    4        0   117  0.9257E+02  0.6182E+00  0.6150E+00  0.5605E-44
REACH    1        0   118  0.2495E+02  0.1012E-02  0.8552E-03  0.1401E-44
REACH    2        0   118  0.5464E+02  0.7832E-02  0.4020E-02  0.2803E-44
REACH    3        0   118  0.1361E+02  0.1289E+00  0.1278E+00  0.4204E-44
REACH    4        0   118  0.9257E+02  0.3954E+00  0.3884E+00  0.5605E-44
REACH    1        0   119  0.2495E+02  0.9878E-03  0.8470E-03  0.1401E-44
REACH    2        0   119  0.5464E+02  0.7703E-02  0.4036E-02  0.2803E-44
REACH    3        0   119  0.1361E+02  0.1259E+00  0.1249E+00  0.4204E-44
REACH    4        0   119  0.9257E+02  0.3868E+00  0.3805E+00  0.5605E-44
REACH    1        0   120  0.2495E+02  0.9645E-03  0.8226E-03  0.1401E-44
REACH    2        0   120  0.5464E+02  0.7558E-02  0.3975E-02  0.2803E-44
REACH    3        0   120  0.1361E+02  0.1231E+00  0.1221E+00  0.4204E-44
REACH    4        0   120  0.9257E+02  0.3783E+00  0.3719E+00  0.5605E-44
REACH    1        0   121  0.2495E+02  0.9420E-03  0.8025E-03  0.1401E-44
REACH    2        0   121  0.5464E+02  0.7417E-02  0.3869E-02  0.2803E-44
REACH    3        0   121  0.1361E+02  0.1338E+00  0.1330E+00  0.4204E-44
REACH    4        0   121  0.9257E+02  0.3905E+00  0.3854E+00  0.5605E-44
REACH    1        0   122  0.2495E+02  0.9202E-03  0.7834E-03  0.1401E-44
REACH    2        0   122  0.5464E+02  0.7278E-02  0.3796E-02  0.2803E-44
REACH    3        0   122  0.1361E+02  0.1178E+00  0.1168E+00  0.4204E-44
REACH    4        0   122  0.9257E+02  0.3618E+00  0.3556E+00  0.5605E-44
REACH    1        0   123  0.2495E+02  0.8990E-03  0.7462E-03  0.1401E-44
REACH    2        0   123  0.5464E+02  0.7121E-02  0.3361E-02  0.2803E-44
REACH    3        0   123  0.1361E+02  0.1151E+00  0.1140E+00  0.4204E-44
REACH    4        0   123  0.9257E+02  0.3531E+00  0.3461E+00  0.5605E-44
REACH    1        0   124  0.2495E+02  0.8784E-03  0.7818E-03  0.1401E-44
REACH    2        0   124  0.5464E+02  0.7037E-02  0.4200E-02  0.2803E-44
REACH    3        0   124  0.1361E+02  0.1124E+00  0.1113E+00  0.4204E-44
REACH    4        0   124  0.9257E+02  0.3459E+00  0.3389E+00  0.5605E-44
REACH    1        0   125  0.2495E+02  0.8583E-03  0.7202E-03  0.1401E-44
REACH    2        0   125  0.5464E+02  0.6857E-02  0.3658E-02  0.2803E-44
REACH    3        0   125  0.1361E+02  0.1098E+00  0.1088E+00  0.4204E-44
REACH    4        0   125  0.9257E+02  0.3375E+00  0.3313E+00  0.5605E-44
REACH    1        0   126  0.2495E+02  0.8386E-03  0.6846E-03  0.1401E-44
REACH    2        0   126  0.5464E+02  0.6703E-02  0.2932E-02  0.2803E-44
REACH    3        0   126  0.1361E+02  0.1073E+00  0.1067E+00  0.4204E-44
REACH    4        0   126  0.9257E+02  0.3295E+00  0.3256E+00  0.5605E-44
REACH    1        0   127  0.2495E+02  0.8194E-03  0.6564E-03  0.1401E-44
REACH    2        0   127  0.5464E+02  0.6558E-02  0.2523E-02  0.2803E-44
REACH    3        0   127  0.1361E+02  0.2560E+00  0.2553E+00  0.4204E-44
REACH    4        0   127  0.9257E+02  0.5502E+00  0.5459E+00  0.5605E-44
REACH    1        0   128  0.2495E+02  0.8007E-03  0.6100E-03  0.1401E-44
REACH    2        0   128  0.5464E+02  0.6396E-02  0.1825E-02  0.2803E-44
REACH    3        0   128  0.1361E+02  0.1031E+00  0.1017E+00  0.4204E-44
REACH    4        0   128  0.9257E+02  0.3145E+00  0.3058E+00  0.5605E-44
REACH    1        0   129  0.2495E+02  0.7824E-03  0.5833E-03  0.1401E-44
REACH    2        0   129  0.5464E+02  0.6254E-02  0.1363E-02  0.2803E-44
REACH    3        0   129  0.1361E+02  0.1004E+00  0.9890E-01  0.4204E-44
REACH    4        0   129  0.9257E+02  0.3061E+00  0.2970E+00  0.5605E-44
REACH    1        0   130  0.2495E+02  0.7646E-03  0.5916E-03  0.1401E-44
REACH    2        0   130  0.5464E+02  0.6148E-02  0.1590E-02  0.2803E-44
REACH    3        0   130  0.1361E+02  0.9792E-01  0.9666E-01  0.4204E-44
REACH    4        0   130  0.9257E+02  0.2991E+00  0.2912E+00  0.5605E-44
REACH    1        0   131  0.2495E+02  0.7472E-03  0.5696E-03  0.1401E-44
REACH    2        0   131  0.5464E+02  0.6013E-02  0.1553E-02  0.2803E-44
REACH    3        0   131  0.1361E+02  0.9553E-01  0.9423E-01  0.4204E-44
REACH    4        0   131  0.9257E+02  0.2917E+00  0.2837E+00  0.5605E-44
REACH    1        0   132  0.2495E+02  0.7301E-03  0.5333E-03  0.1401E-44
REACH    2        0   132  0.5464E+02  0.5865E-02  0.1106E-02  0.2803E-44
REACH    3        0   132  0.1361E+02  0.9318E-01  0.9174E-01  0.4204E-44
REACH    4        0   132  0.9257E+02  0.2840E+00  0.2751E+00  0.5605E-44
REACH    1        0   133  0.2495E+02  0.5292E+00  0.5291E+00  0.1401E-44
REACH    2        0   133  0.5464E+02  0.1065E+01  0.1062E+01  0.2803E-44
REACH    3        0   133  0.1361E+02  0.9087E-01  0.8952E-01  0.4204E-44
REACH    4        0   133  0.9257E+02  0.1338E+01  0.1330E+01  0.5605E-44
REACH    1        0   134  0.2495E+02  0.3394E-02  0.3217E-02  0.1401E-44
REACH    2        0   134  0.5464E+02  0.9997E-02  0.4458E-02  0.2803E-44
REACH    3        0   134  0.1361E+02  0.8861E-01  0.8733E-01  0.4204E-44
REACH    4        0   134  0.9257E+02  0.2736E+00  0.2656E+00  0.5605E-44
REACH    1        0   135  0.2495E+02  0.1815E-02  0.1634E-02  0.1401E-44
REACH    2        0   135  0.5464E+02  0.7683E-02  0.3098E-02  0.2803E-44
REACH    3        0   135  0.1361E+02  0.8639E-01  0.8508E-01  0.4204E-44
REACH    4        0   135  0.9257E+02  0.2654E+00  0.2572E+00  0.5605E-44
REACH    1        0   136  0.2495E+02  0.1326E-02  0.1141E-02  0.1401E-44
REACH    2        0   136  0.5464E+02  0.7033E-02  0.2422E-02  0.2803E-44
REACH    3        0   136  0.1361E+02  0.8708E-01  0.8613E-01  0.4204E-44
REACH    4        0   136  0.9257E+02  0.2629E+00  0.2569E+00  0.5605E-44
REACH    1        0   137  0.2495E+02  0.2581E+00  0.2580E+00  0.1401E-44
REACH    2        0   137  0.5464E+02  0.5215E+00  0.5193E+00  0.2803E-44
REACH    3        0   137  0.1361E+02  0.8210E-01  0.8084E-01  0.4204E-44
REACH    4        0   137  0.9257E+02  0.7686E+00  0.7606E+00  0.5605E-44
REACH    1        0   138  0.2495E+02  0.2448E-02  0.2344E-02  0.1401E-44
REACH    2        0   138  0.5464E+02  0.8829E-02  0.4648E-02  0.2803E-44
REACH    3        0   138  0.1361E+02  0.8001E-01  0.7879E-01  0.4204E-44
REACH    4        0   138  0.9257E+02  0.2476E+00  0.2400E+00  0.5605E-44
REACH    1        0   139  0.2495E+02  0.1516E-02  0.1346E-02  0.1401E-44
REACH    2        0   139  0.5464E+02  0.7381E-02  0.3493E-02  0.2803E-44
REACH    3        0   139  0.1361E+02  0.8120E-01  0.8036E-01  0.4204E-44
REACH    4        0   139  0.9257E+02  0.2456E+00  0.2403E+00  0.5605E-44
REACH    1        0   140  0.2495E+02  0.1229E-01  0.1216E-01  0.1401E-44
REACH    2        0   140  0.5464E+02  0.2895E-01  0.2667E-01  0.2803E-44
REACH    3        0   140  0.1361E+02  0.2134E+00  0.2125E+00  0.4204E-44
REACH    4        0   140  0.9257E+02  0.4671E+00  0.4610E+00  0.5605E-44
REACH    1        0   141  0.2495E+02  0.1197E-02  0.1143E-02  0.1401E-44
REACH    2        0   141  0.5464E+02  0.6914E-02  0.3538E-02  0.2803E-44
REACH    3        0   141  0.1361E+02  0.9904E-01  0.9863E-01  0.4204E-44
REACH    4        0   141  0.9257E+02  0.2680E+00  0.2655E+00  0.5605E-44
REACH    1        0   142  0.2495E+02  0.1008E-02  0.8238E-03  0.1401E-44
REACH    2        0   142  0.5464E+02  0.6423E-02  0.2732E-02  0.2803E-44
REACH    3        0   142  0.1361E+02  0.7272E-01  0.7138E-01  0.4204E-44
REACH    4        0   142  0.9257E+02  0.2234E+00  0.2150E+00  0.5605E-44
REACH    1        0   143  0.2495E+02  0.9096E-03  0.7128E-03  0.1401E-44
REACH    2        0   143  0.5464E+02  0.6157E-02  0.1444E-02  0.2803E-44
REACH    3        0   143  0.1361E+02  0.7077E-01  0.6934E-01  0.4204E-44
REACH    4        0   143  0.9257E+02  0.2161E+00  0.2072E+00  0.5605E-44
REACH    1        0   144  0.2495E+02  0.6496E-01  0.6488E-01  0.1401E-44
REACH    2        0   144  0.5464E+02  0.1342E+00  0.1328E+00  0.2803E-44
REACH    3        0   144  0.1361E+02  0.6890E-01  0.6748E-01  0.4204E-44
REACH    4        0   144  0.9257E+02  0.3418E+00  0.3329E+00  0.5605E-44
REACH    1        0   145  0.2495E+02  0.1363E-02  0.1215E-02  0.1401E-44
REACH    2        0   145  0.5464E+02  0.6648E-02  0.1799E-02  0.2803E-44
REACH    3        0   145  0.1361E+02  0.6708E-01  0.6562E-01  0.4204E-44
REACH    4        0   145  0.9257E+02  0.2052E+00  0.1961E+00  0.5605E-44
REACH    1        0   146  0.2495E+02  0.1039E-02  0.8273E-03  0.1401E-44
REACH    2        0   146  0.5464E+02  0.6039E-02  0.1162E-02  0.2803E-44
REACH    3        0   146  0.1361E+02  0.6529E-01  0.6377E-01  0.4204E-44
REACH    4        0   146  0.9257E+02  0.1991E+00  0.1895E+00  0.5605E-44
REACH    1        0   147  0.2495E+02  0.9053E-03  0.6759E-03  0.1401E-44
REACH    2        0   147  0.5464E+02  0.5741E-02  0.3362E-03  0.2803E-44
REACH    3        0   147  0.1361E+02  0.6355E-01  0.6189E-01  0.4204E-44
REACH    4        0   147  0.9257E+02  0.1928E+00  0.1824E+00  0.5605E-44
REACH    1        0   148  0.2495E+02  0.8296E-03  0.6953E-03  0.1401E-44
REACH    2        0   148  0.5464E+02  0.5617E-02  0.1387E-02  0.2803E-44
REACH    3        0   148  0.1361E+02  0.6185E-01  0.6039E-01  0.4204E-44
REACH    4        0   148  0.9257E+02  0.1888E+00  0.1797E+00  0.5605E-44
REACH    1        0   149  0.2495E+02  0.7825E-03  0.5661E-03  0.1401E-44
REACH    2        0   149  0.5464E+02  0.5350E-02  0.5667E-03  0.2803E-44
REACH    3        0   149  0.1361E+02  0.6019E-01  0.5862E-01  0.4204E-44
REACH    4        0   149  0.9257E+02  0.1828E+00  0.1730E+00  0.5605E-44
REACH    1        0   150  0.2495E+02  0.7499E-03  0.5668E-03  0.1401E-44
REACH    2        0   150  0.5464E+02  0.5216E-02  0.5226E-03  0.2803E-44
REACH    3        0   150  0.1361E+02  0.5856E-01  0.5723E-01  0.4204E-44
REACH    4        0   150  0.9257E+02  0.1781E+00  0.1697E+00  0.5605E-44
REACH    1        0   151  0.2495E+02  0.2196E+00  0.2195E+00  0.1401E-44
REACH    2        0   151  0.5464E+02  0.4434E+00  0.4420E+00  0.2803E-44
REACH    3        0   151  0.1361E+02  0.5698E-01  0.5578E-01  0.4204E-44
REACH    4        0   151  0.9257E+02  0.6148E+00  0.6073E+00  0.5605E-44
REACH    1        0   152  0.2495E+02  0.4170E+00  0.4169E+00  0.1401E-44
REACH    2        0   152  0.5464E+02  0.8383E+00  0.8357E+00  0.2803E-44
REACH    3        0   152  0.1361E+02  0.5582E-01  0.5509E-01  0.4204E-44
REACH    4        0   152  0.9257E+02  0.1005E+01  0.1000E+01  0.5605E-44
REACH    1        0   153  0.2495E+02  0.3612E-02  0.3366E-02  0.1401E-44
REACH    2        0   153  0.5464E+02  0.9596E-02  0.2666E-02  0.2803E-44
REACH    3        0   153  0.1361E+02  0.1600E+00  0.1587E+00  0.4204E-44
REACH    4        0   153  0.9257E+02  0.3278E+00  0.3193E+00  0.5605E-44
REACH    1        0   154  0.2495E+02  0.2023E-02  0.1799E-02  0.1401E-44
REACH    2        0   154  0.5464E+02  0.7390E-02  0.1731E-02  0.2803E-44
REACH    3        0   154  0.1361E+02  0.1129E+00  0.1118E+00  0.4204E-44
REACH    4        0   154  0.9257E+02  0.2536E+00  0.2468E+00  0.5605E-44
REACH    1        0   155  0.2495E+02  0.1463E-02  0.1232E-02  0.1401E-44
REACH    2        0   155  0.5464E+02  0.6640E-02  0.1002E-02  0.2803E-44
REACH    3        0   155  0.1361E+02  0.6217E-01  0.6089E-01  0.4204E-44
REACH    4        0   155  0.9257E+02  0.1737E+00  0.1656E+00  0.5605E-44
REACH    1        0   156  0.2495E+02  0.1198E+01  0.1197E+01  0.1401E-44
REACH    2        0   156  0.5464E+02  0.2407E+01  0.2405E+01  0.2803E-44
REACH    3        0   156  0.1361E+02  0.1113E+00  0.1105E+00  0.4204E-44
REACH    4        0   156  0.9257E+02  0.2651E+01  0.2645E+01  0.5605E-44
REACH    1        0   157  0.2495E+02  0.6557E-02  0.6454E-02  0.1401E-44
REACH    2        0   157  0.5464E+02  0.1578E-01  0.1319E-01  0.2803E-44
REACH    3        0   157  0.1361E+02  0.1872E+00  0.1864E+00  0.4204E-44
REACH    4        0   157  0.9257E+02  0.3736E+00  0.3689E+00  0.5605E-44
REACH    1        0   158  0.2495E+02  0.5130E-01  0.5123E-01  0.1401E-44
REACH    2        0   158  0.5464E+02  0.1068E+00  0.1050E+00  0.2803E-44
REACH    3        0   158  0.1361E+02  0.4877E-01  0.4746E-01  0.4204E-44
REACH    4        0   158  0.9257E+02  0.2526E+00  0.2443E+00  0.5605E-44
REACH    1        0   159  0.2495E+02  0.4453E-01  0.4442E-01  0.1401E-44
REACH    2        0   159  0.5464E+02  0.9366E-01  0.9076E-01  0.2803E-44
REACH    3        0   159  0.1361E+02  0.4718E-01  0.4587E-01  0.4204E-44
REACH    4        0   159  0.9257E+02  0.2338E+00  0.2256E+00  0.5605E-44
REACH    1        0   160  0.2495E+02  0.4939E+00  0.4938E+00  0.1401E-44
REACH    2        0   160  0.5464E+02  0.9936E+00  0.9909E+00  0.2803E-44
REACH    3        0   160  0.1361E+02  0.4584E-01  0.4451E-01  0.4204E-44
REACH    4        0   160  0.9257E+02  0.1130E+01  0.1121E+01  0.5605E-44
REACH    1        0   161  0.2495E+02  0.5460E-02  0.5265E-02  0.1401E-44
REACH    2        0   161  0.5464E+02  0.1517E-01  0.1023E-01  0.2803E-44
REACH    3        0   161  0.1361E+02  0.4453E-01  0.4313E-01  0.4204E-44
REACH    4        0   161  0.9257E+02  0.1451E+00  0.1363E+00  0.5605E-44
REACH    1        0   162  0.2495E+02  0.3228E-02  0.3007E-02  0.1401E-44
REACH    2        0   162  0.5464E+02  0.1201E-01  0.5771E-02  0.2803E-44
REACH    3        0   162  0.1361E+02  0.4326E-01  0.4168E-01  0.4204E-44
REACH    4        0   162  0.9257E+02  0.1366E+00  0.1266E+00  0.5605E-44
REACH    1        0   163  0.2495E+02  0.2382E-02  0.2163E-02  0.1401E-44
REACH    2        0   163  0.5464E+02  0.1081E-01  0.5188E-02  0.2803E-44
REACH    3        0   163  0.1361E+02  0.9450E-01  0.9343E-01  0.4204E-44
REACH    4        0   163  0.9257E+02  0.2127E+00  0.2060E+00  0.5605E-44
REACH    1        0   164  0.2495E+02  0.2262E+01  0.2262E+01  0.1401E-44
REACH    2        0   164  0.5464E+02  0.5059E+01  0.5056E+01  0.2803E-44
REACH    3        0   164  0.1361E+02  0.4112E-01  0.3948E-01  0.4204E-44
REACH    4        0   164  0.9257E+02  0.5180E+01  0.5169E+01  0.5605E-44
REACH    1        0   165  0.2495E+02  0.1570E-01  0.1553E-01  0.1401E-44
REACH    2        0   165  0.5464E+02  0.3313E-01  0.2872E-01  0.2803E-44
REACH    3        0   165  0.1361E+02  0.3986E-01  0.3860E-01  0.4204E-44
REACH    4        0   165  0.9257E+02  0.1495E+00  0.1415E+00  0.5605E-44
REACH    1        0   166  0.2495E+02  0.7747E-02  0.7568E-02  0.1401E-44
REACH    2        0   166  0.5464E+02  0.2286E-01  0.1597E-01  0.2803E-44
REACH    3        0   166  0.1361E+02  0.3872E-01  0.3742E-01  0.4204E-44
REACH    4        0   166  0.9257E+02  0.1332E+00  0.1250E+00  0.5605E-44
REACH    1        0   167  0.2495E+02  0.8995E-01  0.8984E-01  0.1401E-44
REACH    2        0   167  0.5464E+02  0.1900E+00  0.1896E+00  0.2803E-44
REACH    3        0   167  0.1361E+02  0.3760E-01  0.3624E-01  0.4204E-44
REACH    4        0   167  0.9257E+02  0.3034E+00  0.2947E+00  0.5605E-44
REACH    1        0   168  0.2495E+02  0.2956E+00  0.2955E+00  0.1401E-44
REACH    2        0   168  0.5464E+02  0.6036E+00  0.6009E+00  0.2803E-44
REACH    3        0   168  0.1361E+02  0.2305E+00  0.2297E+00  0.4204E-44
REACH    4        0   168  0.9257E+02  0.1007E+01  0.1003E+01  0.5605E-44
REACH    1        0   169  0.2495E+02  0.1330E+01  0.1330E+01  0.1401E-44
REACH    2        0   169  0.5464E+02  0.3188E+01  0.3184E+01  0.2803E-44
REACH    3        0   169  0.1361E+02  0.1304E+00  0.1295E+00  0.4204E-44
REACH    4        0   169  0.9257E+02  0.3438E+01  0.3432E+01  0.5605E-44
REACH    1        0   170  0.2495E+02  0.1426E-01  0.1403E-01  0.1401E-44
REACH    2        0   170  0.5464E+02  0.4027E-01  0.3421E-01  0.2803E-44
REACH    3        0   170  0.1361E+02  0.3581E-01  0.3409E-01  0.4204E-44
REACH    4        0   170  0.9257E+02  0.1420E+00  0.1312E+00  0.5605E-44
REACH    1        0   171  0.2495E+02  0.1064E+00  0.1062E+00  0.1401E-44
REACH    2        0   171  0.5464E+02  0.2310E+00  0.2265E+00  0.2803E-44
REACH    3        0   171  0.1361E+02  0.3460E-01  0.3296E-01  0.4204E-44
REACH    4        0   171  0.9257E+02  0.3310E+00  0.3205E+00  0.5605E-44
REACH    1        0   172  0.2495E+02  0.2475E+00  0.2473E+00  0.1401E-44
REACH    2        0   172  0.5464E+02  0.5177E+00  0.5137E+00  0.2803E-44
REACH    3        0   172  0.1361E+02  0.3358E-01  0.3199E-01  0.4204E-44
REACH    4        0   172  0.9257E+02  0.6151E+00  0.6050E+00  0.5605E-44
REACH    1        0   173  0.2495E+02  0.6189E-02  0.5998E-02  0.1401E-44
REACH    2        0   173  0.5464E+02  0.3690E-01  0.3204E-01  0.2803E-44
REACH    3        0   173  0.1361E+02  0.3258E-01  0.3120E-01  0.4204E-44
REACH    4        0   173  0.9257E+02  0.1305E+00  0.1219E+00  0.5605E-44
REACH    1        0   174  0.2495E+02  0.4541E-02  0.4342E-02  0.1401E-44
REACH    2        0   174  0.5464E+02  0.3617E-01  0.3113E-01  0.2803E-44
REACH    3        0   174  0.1361E+02  0.3161E-01  0.3019E-01  0.4204E-44
REACH    4        0   174  0.9257E+02  0.1266E+00  0.1176E+00  0.5605E-44
REACH    1        0   175  0.2495E+02  0.3811E-02  0.3611E-02  0.1401E-44
REACH    2        0   175  0.5464E+02  0.3648E-01  0.3143E-01  0.2803E-44
REACH    3        0   175  0.1361E+02  0.1413E+00  0.1405E+00  0.4204E-44
REACH    4        0   175  0.9257E+02  0.2932E+00  0.2884E+00  0.5605E-44
REACH    1        0   176  0.2495E+02  0.3403E+01  0.3403E+01  0.1401E-44
REACH    2        0   176  0.5464E+02  0.7933E+01  0.7930E+01  0.2803E-44
REACH    3        0   176  0.1361E+02  0.9773E-01  0.9684E-01  0.4204E-44
REACH    4        0   176  0.9257E+02  0.8125E+01  0.8119E+01  0.5605E-44
REACH    1        0   177  0.2495E+02  0.2093E+01  0.2093E+01  0.1401E-44
REACH    2        0   177  0.5464E+02  0.5100E+01  0.5097E+01  0.2803E-44
REACH    3        0   177  0.1361E+02  0.4584E-01  0.4490E-01  0.4204E-44
REACH    4        0   177  0.9257E+02  0.5212E+01  0.5205E+01  0.5605E-44
REACH    1        0   178  0.2495E+02  0.4154E-01  0.4143E-01  0.1401E-44
REACH    2        0   178  0.5464E+02  0.1130E+00  0.1101E+00  0.2803E-44
REACH    3        0   178  0.1361E+02  0.1327E+00  0.1318E+00  0.4204E-44
REACH    4        0   178  0.9257E+02  0.3566E+00  0.3513E+00  0.5605E-44
REACH    1        0   179  0.2495E+02  0.1826E-01  0.1806E-01  0.1401E-44
REACH    2        0   179  0.5464E+02  0.7744E-01  0.7243E-01  0.2803E-44
REACH    3        0   179  0.1361E+02  0.3655E-01  0.3568E-01  0.4204E-44
REACH    4        0   179  0.9257E+02  0.1718E+00  0.1663E+00  0.5605E-44
REACH    1        0   180  0.2495E+02  0.1284E-01  0.1266E-01  0.1401E-44
REACH    2        0   180  0.5464E+02  0.7555E-01  0.7113E-01  0.2803E-44
REACH    3        0   180  0.1361E+02  0.1846E+00  0.1839E+00  0.4204E-44
REACH    4        0   180  0.9257E+02  0.3958E+00  0.3916E+00  0.5605E-44
REACH    1        0   181  0.2495E+02  0.2237E-01  0.2221E-01  0.1401E-44
REACH    2        0   181  0.5464E+02  0.1007E+00  0.9681E-01  0.2803E-44
REACH    3        0   181  0.1361E+02  0.2829E-01  0.2674E-01  0.4204E-44
REACH    4        0   181  0.9257E+02  0.1819E+00  0.1721E+00  0.5605E-44
REACH    1        0   182  0.2495E+02  0.4483E-01  0.4476E-01  0.1401E-44
REACH    2        0   182  0.5464E+02  0.1499E+00  0.1481E+00  0.2803E-44
REACH    3        0   182  0.1361E+02  0.6030E-01  0.5978E-01  0.4204E-44
REACH    4        0   182  0.9257E+02  0.2817E+00  0.2784E+00  0.5605E-44
REACH    1        0   183  0.2495E+02  0.1484E-01  0.1476E-01  0.1401E-44
REACH    2        0   183  0.5464E+02  0.9287E-01  0.9067E-01  0.2803E-44
REACH    3        0   183  0.1361E+02  0.8091E-01  0.8026E-01  0.4204E-44
REACH    4        0   183  0.9257E+02  0.2549E+00  0.2509E+00  0.5605E-44
REACH    1        0   184  0.2495E+02  0.7551E-02  0.7344E-02  0.1401E-44
REACH    2        0   184  0.5464E+02  0.8106E-01  0.7578E-01  0.2803E-44
REACH    3        0   184  0.1361E+02  0.3043E-01  0.2958E-01  0.4204E-44
REACH    4        0   184  0.9257E+02  0.1620E+00  0.1567E+00  0.5605E-44
REACH    1        0   185  0.2495E+02  0.7151E-02  0.7059E-02  0.1401E-44
REACH    2        0   185  0.5464E+02  0.8263E-01  0.8029E-01  0.2803E-44
REACH    3        0   185  0.1361E+02  0.2538E-01  0.2400E-01  0.4204E-44
REACH    4        0   185  0.9257E+02  0.1571E+00  0.1483E+00  0.5605E-44
REACH    1        0   186  0.2495E+02  0.6974E-02  0.6777E-02  0.1401E-44
REACH    2        0   186  0.5464E+02  0.8396E-01  0.7894E-01  0.2803E-44
REACH    3        0   186  0.1361E+02  0.2457E-01  0.2311E-01  0.4204E-44
REACH    4        0   186  0.9257E+02  0.1531E+00  0.1439E+00  0.5605E-44
REACH    1        0   187  0.2495E+02  0.1257E-01  0.1245E-01  0.1401E-44
REACH    2        0   187  0.5464E+02  0.9654E-01  0.9349E-01  0.2803E-44
REACH    3        0   187  0.1361E+02  0.6447E-01  0.6359E-01  0.4204E-44
REACH    4        0   187  0.9257E+02  0.2279E+00  0.2224E+00  0.5605E-44
REACH    1        0   188  0.2495E+02  0.2793E-01  0.2778E-01  0.1401E-44
REACH    2        0   188  0.5464E+02  0.1282E+00  0.1243E+00  0.2803E-44
REACH    3        0   188  0.1361E+02  0.2329E-01  0.2154E-01  0.4204E-44
REACH    4        0   188  0.9257E+02  0.1942E+00  0.1831E+00  0.5605E-44
REACH    1        0   189  0.2495E+02  0.7319E-02  0.7072E-02  0.1401E-44
REACH    2        0   189  0.5464E+02  0.8798E-01  0.8170E-01  0.2803E-44
REACH    3        0   189  0.1361E+02  0.2250E-01  0.2070E-01  0.4204E-44
REACH    4        0   189  0.9257E+02  0.1492E+00  0.1378E+00  0.5605E-44
REACH    1        0   190  0.2495E+02  0.7107E-02  0.6966E-02  0.1401E-44
REACH    2        0   190  0.5464E+02  0.8862E-01  0.8503E-01  0.2803E-44
REACH    3        0   190  0.1361E+02  0.2179E-01  0.2025E-01  0.4204E-44
REACH    4        0   190  0.9257E+02  0.1506E+00  0.1409E+00  0.5605E-44
REACH    1        0   191  0.2495E+02  0.7012E-02  0.6800E-02  0.1401E-44
REACH    2        0   191  0.5464E+02  0.8903E-01  0.8361E-01  0.2803E-44
REACH    3        0   191  0.1361E+02  0.2620E+00  0.2609E+00  0.4204E-44
REACH    4        0   191  0.9257E+02  0.5173E+00  0.5107E+00  0.5605E-44
REACH    1        0   192  0.2495E+02  0.6959E-02  0.6749E-02  0.1401E-44
REACH    2        0   192  0.5464E+02  0.8940E-01  0.8405E-01  0.2803E-44
REACH    3        0   192  0.1361E+02  0.6313E-01  0.6239E-01  0.4204E-44
REACH    4        0   192  0.9257E+02  0.2131E+00  0.2085E+00  0.5605E-44
REACH    1        0   193  0.2495E+02  0.6923E-02  0.6710E-02  0.1401E-44
REACH    2        0   193  0.5464E+02  0.8964E-01  0.8419E-01  0.2803E-44
REACH    3        0   193  0.1361E+02  0.5112E-01  0.5007E-01  0.4204E-44
REACH    4        0   193  0.9257E+02  0.1942E+00  0.1876E+00  0.5605E-44
REACH    1        0   194  0.2495E+02  0.6891E-02  0.6686E-02  0.1401E-44
REACH    2        0   194  0.5464E+02  0.8974E-01  0.8452E-01  0.2803E-44
REACH    3        0   194  0.1361E+02  0.5672E-01  0.5593E-01  0.4204E-44
REACH    4        0   194  0.9257E+02  0.2028E+00  0.1978E+00  0.5605E-44
REACH    1        0   195  0.2495E+02  0.6858E-02  0.6638E-02  0.1401E-44
REACH    2        0   195  0.5464E+02  0.8970E-01  0.8409E-01  0.2803E-44
REACH    3        0   195  0.1361E+02  0.2034E-01  0.1871E-01  0.4204E-44
REACH    4        0   195  0.9257E+02  0.1452E+00  0.1349E+00  0.5605E-44
REACH    1        0   196  0.2495E+02  0.6821E-02  0.6583E-02  0.1401E-44
REACH    2        0   196  0.5464E+02  0.8952E-01  0.8347E-01  0.2803E-44
REACH    3        0   196  0.1361E+02  0.1962E-01  0.1789E-01  0.4204E-44
REACH    4        0   196  0.9257E+02  0.1423E+00  0.1314E+00  0.5605E-44
REACH    1        0   197  0.2495E+02  0.6779E-02  0.6502E-02  0.1401E-44
REACH    2        0   197  0.5464E+02  0.8921E-01  0.8215E-01  0.2803E-44
REACH    3        0   197  0.1361E+02  0.6778E-01  0.6622E-01  0.4204E-44
REACH    4        0   197  0.9257E+02  0.2136E+00  0.2039E+00  0.5605E-44
REACH    1        0   198  0.2495E+02  0.6732E-02  0.6506E-02  0.1401E-44
REACH    2        0   198  0.5464E+02  0.8889E-01  0.8313E-01  0.2803E-44
REACH    3        0   198  0.1361E+02  0.1892E-01  0.1754E-01  0.4204E-44
REACH    4        0   198  0.9257E+02  0.1396E+00  0.1309E+00  0.5605E-44
REACH    1        0   199  0.2495E+02  0.6679E-02  0.6487E-02  0.1401E-44
REACH    2        0   199  0.5464E+02  0.8844E-01  0.8354E-01  0.2803E-44
REACH    3        0   199  0.1361E+02  0.3379E-01  0.3289E-01  0.4204E-44
REACH    4        0   199  0.9257E+02  0.1623E+00  0.1566E+00  0.5605E-44
REACH    1        0   200  0.2495E+02  0.6189E+00  0.6188E+00  0.1401E-44
REACH    2        0   200  0.5464E+02  0.1315E+01  0.1311E+01  0.2803E-44
REACH    3        0   200  0.1361E+02  0.2693E+00  0.2683E+00  0.4204E-44
REACH    4        0   200  0.9257E+02  0.1777E+01  0.1771E+01  0.5605E-44
REACH    1        0   201  0.2495E+02  0.9613E-02  0.9408E-02  0.1401E-44
REACH    2        0   201  0.5464E+02  0.9217E-01  0.8695E-01  0.2803E-44
REACH    3        0   201  0.1361E+02  0.1852E-01  0.1700E-01  0.4204E-44
REACH    4        0   201  0.9257E+02  0.1421E+00  0.1325E+00  0.5605E-44
REACH    1        0   202  0.2495E+02  0.8505E+00  0.8503E+00  0.1401E-44
REACH    2        0   202  0.5464E+02  0.1778E+01  0.1775E+01  0.2803E-44
REACH    3        0   202  0.1361E+02  0.1753E-01  0.1606E-01  0.4204E-44
REACH    4        0   202  0.9257E+02  0.1827E+01  0.1818E+01  0.5605E-44
REACH    1        0   203  0.2495E+02  0.1124E-01  0.1105E-01  0.1401E-44
REACH    2        0   203  0.5464E+02  0.9467E-01  0.8981E-01  0.2803E-44
REACH    3        0   203  0.1361E+02  0.4651E-01  0.4558E-01  0.4204E-44
REACH    4        0   203  0.9257E+02  0.1864E+00  0.1807E+00  0.5605E-44
REACH    1        0   204  0.2495E+02  0.4353E+00  0.4352E+00  0.1401E-44
REACH    2        0   204  0.5464E+02  0.9454E+00  0.9427E+00  0.2803E-44
REACH    3        0   204  0.1361E+02  0.4651E+00  0.4643E+00  0.4204E-44
REACH    4        0   204  0.9257E+02  0.1910E+01  0.1905E+01  0.5605E-44
REACH    1        0   205  0.2495E+02  0.1004E-01  0.9809E-02  0.1401E-44
REACH    2        0   205  0.5464E+02  0.9248E-01  0.8651E-01  0.2803E-44
REACH    3        0   205  0.1361E+02  0.1939E-01  0.1766E-01  0.4204E-44
REACH    4        0   205  0.9257E+02  0.1443E+00  0.1333E+00  0.5605E-44
REACH    1        0   206  0.2495E+02  0.8200E-02  0.7964E-02  0.1401E-44
REACH    2        0   206  0.5464E+02  0.8908E-01  0.8307E-01  0.2803E-44
REACH    3        0   206  0.1361E+02  0.1880E-01  0.1706E-01  0.4204E-44
REACH    4        0   206  0.9257E+02  0.1400E+00  0.1290E+00  0.5605E-44
REACH    1        0   207  0.2495E+02  0.7473E-02  0.7247E-02  0.1401E-44
REACH    2        0   207  0.5464E+02  0.8724E-01  0.8148E-01  0.2803E-44
REACH    3        0   207  0.1361E+02  0.1878E-01  0.1713E-01  0.4204E-44
REACH    4        0   207  0.9257E+02  0.1385E+00  0.1281E+00  0.5605E-44
REACH    1        0   208  0.2495E+02  0.7056E-02  0.6862E-02  0.1401E-44
REACH    2        0   208  0.5464E+02  0.8570E-01  0.8076E-01  0.2803E-44
REACH    3        0   208  0.1361E+02  0.2078E+01  0.2077E+01  0.4204E-44
REACH    4        0   208  0.9257E+02  0.5457E+01  0.5451E+01  0.5605E-44
REACH    1        0   209  0.2495E+02  0.1611E+00  0.1609E+00  0.1401E-44
REACH    2        0   209  0.5464E+02  0.3931E+00  0.3903E+00  0.2803E-44
REACH    3        0   209  0.1361E+02  0.2812E-01  0.2668E-01  0.4204E-44
REACH    4        0   209  0.9257E+02  0.4750E+00  0.4658E+00  0.5605E-44
REACH    1        0   210  0.2495E+02  0.9924E-01  0.9913E-01  0.1401E-44
REACH    2        0   210  0.5464E+02  0.2676E+00  0.2648E+00  0.2803E-44
REACH    3        0   210  0.1361E+02  0.2835E-01  0.2697E-01  0.4204E-44
REACH    4        0   210  0.9257E+02  0.3535E+00  0.3448E+00  0.5605E-44
REACH    1        0   211  0.2495E+02  0.1360E-01  0.1350E-01  0.1401E-44
REACH    2        0   211  0.5464E+02  0.9515E-01  0.9279E-01  0.2803E-44
REACH    3        0   211  0.1361E+02  0.4085E-01  0.4017E-01  0.4204E-44
REACH    4        0   211  0.9257E+02  0.2056E+00  0.2012E+00  0.5605E-44
REACH    1        0   212  0.2495E+02  0.1857E+00  0.1856E+00  0.1401E-44
REACH    2        0   212  0.5464E+02  0.4390E+00  0.4362E+00  0.2803E-44
REACH    3        0   212  0.1361E+02  0.1605E+00  0.1597E+00  0.4204E-44
REACH    4        0   212  0.9257E+02  0.7443E+00  0.7392E+00  0.5605E-44
REACH    1        0   213  0.2495E+02  0.1232E+01  0.1232E+01  0.1401E-44
REACH    2        0   213  0.5464E+02  0.2535E+01  0.2532E+01  0.2803E-44
REACH    3        0   213  0.1361E+02  0.4724E-01  0.4632E-01  0.4204E-44
REACH    4        0   213  0.9257E+02  0.2664E+01  0.2658E+01  0.5605E-44
REACH    1        0   214  0.2495E+02  0.1431E-01  0.1412E-01  0.1401E-44
REACH    2        0   214  0.5464E+02  0.9247E-01  0.8774E-01  0.2803E-44
REACH    3        0   214  0.1361E+02  0.4116E-01  0.4022E-01  0.4204E-44
REACH    4        0   214  0.9257E+02  0.2151E+00  0.2092E+00  0.5605E-44
REACH    1        0   215  0.2495E+02  0.2045E+00  0.2044E+00  0.1401E-44
REACH    2        0   215  0.5464E+02  0.4749E+00  0.4715E+00  0.2803E-44
REACH    3        0   215  0.1361E+02  0.4301E-01  0.4207E-01  0.4204E-44
REACH    4        0   215  0.9257E+02  0.6053E+00  0.5993E+00  0.5605E-44
REACH    1        0   216  0.2495E+02  0.3415E-01  0.3402E-01  0.1401E-44
REACH    2        0   216  0.5464E+02  0.1332E+00  0.1301E+00  0.2803E-44
REACH    3        0   216  0.1361E+02  0.4714E-01  0.4625E-01  0.4204E-44
REACH    4        0   216  0.9257E+02  0.2734E+00  0.2678E+00  0.5605E-44
REACH    1        0   217  0.2495E+02  0.1597E+00  0.1596E+00  0.1401E-44
REACH    2        0   217  0.5464E+02  0.3842E+00  0.3810E+00  0.2803E-44
REACH    3        0   217  0.1361E+02  0.4418E-01  0.4278E-01  0.4204E-44
REACH    4        0   217  0.9257E+02  0.5222E+00  0.5133E+00  0.5605E-44
REACH    1        0   218  0.2495E+02  0.8698E-02  0.8498E-02  0.1401E-44
REACH    2        0   218  0.5464E+02  0.8111E-01  0.7601E-01  0.2803E-44
REACH    3        0   218  0.1361E+02  0.4555E-01  0.4410E-01  0.4204E-44
REACH    4        0   218  0.9257E+02  0.2217E+00  0.2125E+00  0.5605E-44
REACH    1        0   219  0.2495E+02  0.1625E-01  0.1611E-01  0.1401E-44
REACH    2        0   219  0.5464E+02  0.9555E-01  0.9204E-01  0.2803E-44
REACH    3        0   219  0.1361E+02  0.5928E-01  0.5828E-01  0.4204E-44
REACH    4        0   219  0.9257E+02  0.2613E+00  0.2551E+00  0.5605E-44
REACH    1        0   220  0.2495E+02  0.8247E+00  0.8245E+00  0.1401E-44
REACH    2        0   220  0.5464E+02  0.1713E+01  0.1710E+01  0.2803E-44
REACH    3        0   220  0.1361E+02  0.6075E-01  0.5979E-01  0.4204E-44
REACH    4        0   220  0.9257E+02  0.1883E+01  0.1877E+01  0.5605E-44
REACH    1        0   221  0.2495E+02  0.1221E-01  0.1206E-01  0.1401E-44
REACH    2        0   221  0.5464E+02  0.8356E-01  0.7969E-01  0.2803E-44
REACH    3        0   221  0.1361E+02  0.4978E-01  0.4910E-01  0.4204E-44
REACH    4        0   221  0.9257E+02  0.2386E+00  0.2344E+00  0.5605E-44
REACH    1        0   222  0.2495E+02  0.8924E-02  0.8767E-02  0.1401E-44
REACH    2        0   222  0.5464E+02  0.7776E-01  0.7376E-01  0.2803E-44
REACH    3        0   222  0.1361E+02  0.4962E-01  0.4845E-01  0.4204E-44
REACH    4        0   222  0.9257E+02  0.2333E+00  0.2259E+00  0.5605E-44
REACH    1        0   223  0.2495E+02  0.7692E-02  0.7495E-02  0.1401E-44
REACH    2        0   223  0.5464E+02  0.7490E-01  0.6989E-01  0.2803E-44
REACH    3        0   223  0.1361E+02  0.5023E-01  0.4880E-01  0.4204E-44
REACH    4        0   223  0.9257E+02  0.2313E+00  0.2222E+00  0.5605E-44
REACH    1        0   224  0.2495E+02  0.7010E-02  0.6818E-02  0.1401E-44
REACH    2        0   224  0.5464E+02  0.7266E-01  0.6777E-01  0.2803E-44
REACH    3        0   224  0.1361E+02  0.5073E-01  0.4932E-01  0.4204E-44
REACH    4        0   224  0.9257E+02  0.2308E+00  0.2220E+00  0.5605E-44
REACH    1        0   225  0.2495E+02  0.8024E+00  0.8023E+00  0.1401E-44
REACH    2        0   225  0.5464E+02  0.1666E+01  0.1664E+01  0.2803E-44
REACH    3        0   225  0.1361E+02  0.5111E-01  0.5009E-01  0.4204E-44
REACH    4        0   225  0.9257E+02  0.1829E+01  0.1822E+01  0.5605E-44
REACH    1        0   226  0.2495E+02  0.4024E+00  0.4023E+00  0.1401E-44
REACH    2        0   226  0.5464E+02  0.8596E+00  0.8569E+00  0.2803E-44
REACH    3        0   226  0.1361E+02  0.1083E+00  0.1076E+00  0.4204E-44
REACH    4        0   226  0.9257E+02  0.1110E+01  0.1105E+01  0.5605E-44
REACH    1        0   227  0.2495E+02  0.3840E+00  0.3839E+00  0.1401E-44
REACH    2        0   227  0.5464E+02  0.8211E+00  0.8196E+00  0.2803E-44
REACH    3        0   227  0.1361E+02  0.2512E+00  0.2507E+00  0.4204E-44
REACH    4        0   227  0.9257E+02  0.1292E+01  0.1289E+01  0.5605E-44
REACH    1        0   228  0.2495E+02  0.1226E-01  0.1213E-01  0.1401E-44
REACH    2        0   228  0.5464E+02  0.7778E-01  0.7432E-01  0.2803E-44
REACH    3        0   228  0.1361E+02  0.5302E-01  0.5202E-01  0.4204E-44
REACH    4        0   228  0.9257E+02  0.2448E+00  0.2386E+00  0.5605E-44
REACH    1        0   229  0.2495E+02  0.9185E-02  0.9031E-02  0.1401E-44
REACH    2        0   229  0.5464E+02  0.7278E-01  0.6885E-01  0.2803E-44
REACH    3        0   229  0.1361E+02  0.5266E-01  0.5151E-01  0.4204E-44
REACH    4        0   229  0.9257E+02  0.2387E+00  0.2315E+00  0.5605E-44
REACH    1        0   230  0.2495E+02  0.7796E-02  0.7639E-02  0.1401E-44
REACH    2        0   230  0.5464E+02  0.6990E-01  0.6594E-01  0.2803E-44
REACH    3        0   230  0.1361E+02  0.5255E-01  0.5138E-01  0.4204E-44
REACH    4        0   230  0.9257E+02  0.2355E+00  0.2282E+00  0.5605E-44
REACH    1        0   231  0.2495E+02  0.7026E-02  0.6863E-02  0.1401E-44
REACH    2        0   231  0.5464E+02  0.6767E-01  0.6355E-01  0.2803E-44
REACH    3        0   231  0.1361E+02  0.5237E-01  0.5115E-01  0.4204E-44
REACH    4        0   231  0.9257E+02  0.2325E+00  0.2249E+00  0.5605E-44
REACH    1        0   232  0.2495E+02  0.6563E-02  0.6393E-02  0.1401E-44
REACH    2        0   232  0.5464E+02  0.6578E-01  0.6146E-01  0.2803E-44
REACH    3        0   232  0.1361E+02  0.5212E-01  0.5086E-01  0.4204E-44
REACH    4        0   232  0.9257E+02  0.2296E+00  0.2217E+00  0.5605E-44
REACH    1        0   233  0.2495E+02  0.1643E+01  0.1643E+01  0.1401E-44
REACH    2        0   233  0.5464E+02  0.3701E+01  0.3697E+01  0.2803E-44
REACH    3        0   233  0.1361E+02  0.1092E+00  0.1082E+00  0.4204E-44
REACH    4        0   233  0.9257E+02  0.3952E+01  0.3946E+01  0.5605E-44
REACH    1        0   234  0.2495E+02  0.1528E-01  0.1514E-01  0.1401E-44
REACH    2        0   234  0.5464E+02  0.7949E-01  0.7592E-01  0.2803E-44
REACH    3        0   234  0.1361E+02  0.5655E-01  0.5553E-01  0.4204E-44
REACH    4        0   234  0.9257E+02  0.2504E+00  0.2440E+00  0.5605E-44
REACH    1        0   235  0.2495E+02  0.9877E-02  0.9688E-02  0.1401E-44
REACH    2        0   235  0.5464E+02  0.7162E-01  0.6681E-01  0.2803E-44
REACH    3        0   235  0.1361E+02  0.5136E-01  0.4996E-01  0.4204E-44
REACH    4        0   235  0.9257E+02  0.2324E+00  0.2236E+00  0.5605E-44
REACH    1        0   236  0.2495E+02  0.1381E+00  0.1380E+00  0.1401E-44
REACH    2        0   236  0.5464E+02  0.3293E+00  0.3277E+00  0.2803E-44
REACH    3        0   236  0.1361E+02  0.5090E-01  0.4972E-01  0.4204E-44
REACH    4        0   236  0.9257E+02  0.4921E+00  0.4847E+00  0.5605E-44
REACH    1        0   237  0.2495E+02  0.8013E-02  0.7852E-02  0.1401E-44
REACH    2        0   237  0.5464E+02  0.6874E-01  0.6465E-01  0.2803E-44
REACH    3        0   237  0.1361E+02  0.1750E+00  0.1744E+00  0.4204E-44
REACH    4        0   237  0.9257E+02  0.4178E+00  0.4140E+00  0.5605E-44
REACH    1        0   238  0.2495E+02  0.6954E-02  0.6793E-02  0.1401E-44
REACH    2        0   238  0.5464E+02  0.6670E-01  0.6261E-01  0.2803E-44
REACH    3        0   238  0.1361E+02  0.5049E-01  0.4932E-01  0.4204E-44
REACH    4        0   238  0.9257E+02  0.2253E+00  0.2179E+00  0.5605E-44
REACH    1        0   239  0.2495E+02  0.6426E-02  0.6287E-02  0.1401E-44
REACH    2        0   239  0.5464E+02  0.6534E-01  0.6181E-01  0.2803E-44
REACH    3        0   239  0.1361E+02  0.4971E-01  0.4849E-01  0.4204E-44
REACH    4        0   239  0.9257E+02  0.2223E+00  0.2146E+00  0.5605E-44
REACH    1        0   240  0.2495E+02  0.6088E-02  0.5958E-02  0.1401E-44
REACH    2        0   240  0.5464E+02  0.6414E-01  0.6083E-01  0.2803E-44
REACH    3        0   240  0.1361E+02  0.4910E-01  0.4785E-01  0.4204E-44
REACH    4        0   240  0.9257E+02  0.2193E+00  0.2115E+00  0.5605E-44
REACH    1        0   241  0.2495E+02  0.5849E-02  0.5684E-02  0.1401E-44
REACH    2        0   241  0.5464E+02  0.6297E-01  0.5878E-01  0.2803E-44
REACH    3        0   241  0.1361E+02  0.4846E-01  0.4725E-01  0.4204E-44
REACH    4        0   241  0.9257E+02  0.2153E+00  0.2077E+00  0.5605E-44
REACH    1        0   242  0.2495E+02  0.5661E-02  0.5496E-02  0.1401E-44
REACH    2        0   242  0.5464E+02  0.6188E-01  0.5770E-01  0.2803E-44
REACH    3        0   242  0.1361E+02  0.4879E-01  0.4811E-01  0.4204E-44
REACH    4        0   242  0.9257E+02  0.2141E+00  0.2098E+00  0.5605E-44
REACH    1        0   243  0.2495E+02  0.5501E-02  0.5320E-02  0.1401E-44
REACH    2        0   243  0.5464E+02  0.6079E-01  0.5619E-01  0.2803E-44
REACH    3        0   243  0.1361E+02  0.4951E-01  0.4855E-01  0.4204E-44
REACH    4        0   243  0.9257E+02  0.2123E+00  0.2063E+00  0.5605E-44
REACH    1        0   244  0.2495E+02  0.1227E+00  0.1226E+00  0.1401E-44
REACH    2        0   244  0.5464E+02  0.2946E+00  0.2923E+00  0.2803E-44
REACH    3        0   244  0.1361E+02  0.4649E-01  0.4523E-01  0.4204E-44
REACH    4        0   244  0.9257E+02  0.4423E+00  0.4344E+00  0.5605E-44
REACH    1        0   245  0.2495E+02  0.6067E-02  0.5917E-02  0.1401E-44
REACH    2        0   245  0.5464E+02  0.6001E-01  0.5619E-01  0.2803E-44
REACH    3        0   245  0.1361E+02  0.8151E-01  0.8074E-01  0.4204E-44
REACH    4        0   245  0.9257E+02  0.2590E+00  0.2541E+00  0.5605E-44
REACH    1        0   246  0.2495E+02  0.5480E-02  0.5336E-02  0.1401E-44
REACH    2        0   246  0.5464E+02  0.5835E-01  0.5470E-01  0.2803E-44
REACH    3        0   246  0.1361E+02  0.8982E-01  0.8908E-01  0.4204E-44
REACH    4        0   246  0.9257E+02  0.2692E+00  0.2646E+00  0.5605E-44
REACH    1        0   247  0.2495E+02  0.5197E-02  0.5058E-02  0.1401E-44
REACH    2        0   247  0.5464E+02  0.5712E-01  0.5361E-01  0.2803E-44
REACH    3        0   247  0.1361E+02  0.4477E-01  0.4377E-01  0.4204E-44
REACH    4        0   247  0.9257E+02  0.1982E+00  0.1919E+00  0.5605E-44
REACH    1        0   248  0.2495E+02  0.4998E-02  0.4858E-02  0.1401E-44
REACH    2        0   248  0.5464E+02  0.5597E-01  0.5243E-01  0.2803E-44
REACH    3        0   248  0.1361E+02  0.4394E-01  0.4293E-01  0.4204E-44
REACH    4        0   248  0.9257E+02  0.1945E+00  0.1881E+00  0.5605E-44
REACH    1        0   249  0.2495E+02  0.4841E-02  0.4689E-02  0.1401E-44
REACH    2        0   249  0.5464E+02  0.5485E-01  0.5100E-01  0.2803E-44
REACH    3        0   249  0.1361E+02  0.4317E-01  0.4208E-01  0.4204E-44
REACH    4        0   249  0.9257E+02  0.1905E+00  0.1836E+00  0.5605E-44
REACH    1        0   250  0.2495E+02  0.4706E-02  0.4572E-02  0.1401E-44
REACH    2        0   250  0.5464E+02  0.5379E-01  0.5037E-01  0.2803E-44
REACH    3        0   250  0.1361E+02  0.4240E-01  0.4143E-01  0.4204E-44
REACH    4        0   250  0.9257E+02  0.1875E+00  0.1814E+00  0.5605E-44
REACH    1        0   251  0.2495E+02  0.3574E-01  0.3568E-01  0.1401E-44
REACH    2        0   251  0.5464E+02  0.1149E+00  0.1133E+00  0.2803E-44
REACH    3        0   251  0.1361E+02  0.4163E-01  0.4078E-01  0.4204E-44
REACH    4        0   251  0.9257E+02  0.2481E+00  0.2427E+00  0.5605E-44
REACH    1        0   252  0.2495E+02  0.2679E-01  0.2670E-01  0.1401E-44
REACH    2        0   252  0.5464E+02  0.9586E-01  0.9351E-01  0.2803E-44
REACH    3        0   252  0.1361E+02  0.4085E-01  0.3992E-01  0.4204E-44
REACH    4        0   252  0.9257E+02  0.2256E+00  0.2197E+00  0.5605E-44
REACH    1        0   253  0.2495E+02  0.4902E-02  0.4737E-02  0.1401E-44
REACH    2        0   253  0.5464E+02  0.5144E-01  0.4726E-01  0.2803E-44
REACH    3        0   253  0.1361E+02  0.4008E-01  0.3890E-01  0.4204E-44
REACH    4        0   253  0.9257E+02  0.1766E+00  0.1692E+00  0.5605E-44
REACH    1        0   254  0.2495E+02  0.4541E-02  0.4419E-02  0.1401E-44
REACH    2        0   254  0.5464E+02  0.5016E-01  0.4705E-01  0.2803E-44
REACH    3        0   254  0.1361E+02  0.3931E-01  0.3841E-01  0.4204E-44
REACH    4        0   254  0.9257E+02  0.1742E+00  0.1685E+00  0.5605E-44
REACH    1        0   255  0.2495E+02  0.3536E-01  0.3527E-01  0.1401E-44
REACH    2        0   255  0.5464E+02  0.1109E+00  0.1087E+00  0.2803E-44
REACH    3        0   255  0.1361E+02  0.3853E-01  0.3761E-01  0.4204E-44
REACH    4        0   255  0.9257E+02  0.2332E+00  0.2274E+00  0.5605E-44
REACH    1        0   256  0.2495E+02  0.4513E-02  0.4403E-02  0.1401E-44
REACH    2        0   256  0.5464E+02  0.4844E-01  0.4565E-01  0.2803E-44
REACH    3        0   256  0.1361E+02  0.3777E-01  0.3737E-01  0.4204E-44
REACH    4        0   256  0.9257E+02  0.1683E+00  0.1658E+00  0.5605E-44
REACH    1        0   257  0.2495E+02  0.1145E+00  0.1145E+00  0.1401E-44
REACH    2        0   257  0.5464E+02  0.2679E+00  0.2661E+00  0.2803E-44
REACH    3        0   257  0.1361E+02  0.5986E-01  0.5936E-01  0.4204E-44
REACH    4        0   257  0.9257E+02  0.4210E+00  0.4178E+00  0.5605E-44
REACH    1        0   258  0.2495E+02  0.5551E-01  0.5545E-01  0.1401E-44
REACH    2        0   258  0.5464E+02  0.1484E+00  0.1468E+00  0.2803E-44
REACH    3        0   258  0.1361E+02  0.5561E-01  0.5516E-01  0.4204E-44
REACH    4        0   258  0.9257E+02  0.2943E+00  0.2915E+00  0.5605E-44
REACH    1        0   259  0.2495E+02  0.3878E-01  0.3868E-01  0.1401E-44
REACH    2        0   259  0.5464E+02  0.1142E+00  0.1118E+00  0.2803E-44
REACH    3        0   259  0.1361E+02  0.3578E-01  0.3492E-01  0.4204E-44
REACH    4        0   259  0.9257E+02  0.2274E+00  0.2220E+00  0.5605E-44
REACH    1        0   260  0.2495E+02  0.4923E-01  0.4914E-01  0.1401E-44
REACH    2        0   260  0.5464E+02  0.1345E+00  0.1324E+00  0.2803E-44
REACH    3        0   260  0.1361E+02  0.3499E-01  0.3415E-01  0.4204E-44
REACH    4        0   260  0.9257E+02  0.2455E+00  0.2402E+00  0.5605E-44
REACH    1        0   261  0.2495E+02  0.3668E-01  0.3660E-01  0.1401E-44
REACH    2        0   261  0.5464E+02  0.1088E+00  0.1067E+00  0.2803E-44
REACH    3        0   261  0.1361E+02  0.5046E-01  0.4986E-01  0.4204E-44
REACH    4        0   261  0.9257E+02  0.2424E+00  0.2387E+00  0.5605E-44
REACH    1        0   262  0.2495E+02  0.7691E+00  0.7689E+00  0.1401E-44
REACH    2        0   262  0.5464E+02  0.1577E+01  0.1572E+01  0.2803E-44
REACH    3        0   262  0.1361E+02  0.3361E-01  0.3212E-01  0.4204E-44
REACH    4        0   262  0.9257E+02  0.1680E+01  0.1670E+01  0.5605E-44
REACH    1        0   263  0.2495E+02  0.7923E-02  0.7750E-02  0.1401E-44
REACH    2        0   263  0.5464E+02  0.4954E-01  0.4513E-01  0.2803E-44
REACH    3        0   263  0.1361E+02  0.3285E-01  0.3161E-01  0.4204E-44
REACH    4        0   263  0.9257E+02  0.1509E+00  0.1431E+00  0.5605E-44
REACH    1        0   264  0.2495E+02  0.5452E-02  0.5312E-02  0.1401E-44
REACH    2        0   264  0.5464E+02  0.4527E-01  0.4171E-01  0.2803E-44
REACH    3        0   264  0.1361E+02  0.3211E-01  0.3110E-01  0.4204E-44
REACH    4        0   264  0.9257E+02  0.1453E+00  0.1389E+00  0.5605E-44
REACH    1        0   265  0.2495E+02  0.4616E-02  0.4494E-02  0.1401E-44
REACH    2        0   265  0.5464E+02  0.4347E-01  0.4037E-01  0.2803E-44
REACH    3        0   265  0.1361E+02  0.3139E-01  0.3051E-01  0.4204E-44
REACH    4        0   265  0.9257E+02  0.1417E+00  0.1362E+00  0.5605E-44
REACH    1        0   266  0.2495E+02  0.4155E-02  0.4047E-02  0.1401E-44
REACH    2        0   266  0.5464E+02  0.4206E-01  0.3934E-01  0.2803E-44
REACH    3        0   266  0.1361E+02  0.3068E-01  0.2990E-01  0.4204E-44
REACH    4        0   266  0.9257E+02  0.1385E+00  0.1336E+00  0.5605E-44
REACH    1        0   267  0.2495E+02  0.3876E-02  0.3739E-02  0.1401E-44
REACH    2        0   267  0.5464E+02  0.4081E-01  0.3735E-01  0.2803E-44
REACH    3        0   267  0.1361E+02  0.2997E-01  0.2899E-01  0.4204E-44
REACH    4        0   267  0.9257E+02  0.1340E+00  0.1278E+00  0.5605E-44
REACH    1        0   268  0.2495E+02  0.3689E-02  0.3550E-02  0.1401E-44
REACH    2        0   268  0.5464E+02  0.3970E-01  0.3618E-01  0.2803E-44
REACH    3        0   268  0.1361E+02  0.4855E-01  0.4797E-01  0.4204E-44
REACH    4        0   268  0.9257E+02  0.1604E+00  0.1568E+00  0.5605E-44
REACH    1        0   269  0.2495E+02  0.3551E-02  0.3433E-02  0.1401E-44
REACH    2        0   269  0.5464E+02  0.3869E-01  0.3569E-01  0.2803E-44
REACH    3        0   269  0.1361E+02  0.4736E-01  0.4686E-01  0.4204E-44
[...]
REACH    3        0   298  0.1361E+02  0.2350E-02  0.1648E-02  0.4204E-44
REACH    4        0   298  0.9257E+02  0.9654E-02  0.5414E-02  0.5605E-44
REACH    1        0   299  0.2495E+02  0.1079E-02  0.9839E-03  0.1401E-44
REACH    2        0   299  0.5464E+02  0.5048E-02  0.2639E-02  0.2803E-44
REACH    3        0   299  0.1361E+02  0.2266E-02  0.1576E-02  0.4204E-44
REACH    4        0   299  0.9257E+02  0.9157E-02  0.4889E-02  0.5605E-44
REACH    1        0   300  0.2495E+02  0.1035E-02  0.9783E-03  0.1401E-44
REACH    2        0   300  0.5464E+02  0.4894E-02  0.3105E-02  0.2803E-44
REACH    3        0   300  0.1361E+02  0.2185E-02  0.1716E-02  0.4204E-44
REACH    4        0   300  0.9257E+02  0.9583E-02  0.6407E-02  0.5605E-44
REACH    1        0   301  0.2495E+02  0.1001E-02  0.9387E-03  0.1401E-44
REACH    2        0   301  0.5464E+02  0.4713E-02  0.3185E-02  0.2803E-44
REACH    3        0   301  0.1361E+02  0.2108E-02  0.1676E-02  0.4204E-44
REACH    4        0   301  0.9257E+02  0.9452E-02  0.6759E-02  0.5605E-44
REACH    1        0   302  0.2495E+02  0.9727E-03  0.8767E-03  0.1401E-44
REACH    2        0   302  0.5464E+02  0.4516E-02  0.2437E-02  0.2803E-44
REACH    3        0   302  0.1361E+02  0.2034E-02  0.1401E-02  0.4204E-44
REACH    4        0   302  0.9257E+02  0.8265E-02  0.4577E-02  0.5605E-44
REACH    1        0   303  0.2495E+02  0.9475E-03  0.8625E-03  0.1401E-44
REACH    2        0   303  0.5464E+02  0.4372E-02  0.2181E-02  0.2803E-44
REACH    3        0   303  0.1361E+02  0.1963E-02  0.1333E-02  0.4204E-44
REACH    4        0   303  0.9257E+02  0.7784E-02  0.3933E-02  0.5605E-44
REACH    1        0   304  0.2495E+02  0.9241E-03  0.8589E-03  0.1401E-44
REACH    2        0   304  0.5464E+02  0.4244E-02  0.2394E-02  0.2803E-44
REACH    3        0   304  0.1361E+02  0.1895E-02  0.1391E-02  0.4204E-44
REACH    4        0   304  0.9257E+02  0.7904E-02  0.4582E-02  0.5605E-44
REACH    1        0   305  0.2495E+02  0.9020E-03  0.8270E-03  0.1401E-44
REACH    2        0   305  0.5464E+02  0.4094E-02  0.2295E-02  0.2803E-44
REACH    3        0   305  0.1361E+02  0.1830E-02  0.1315E-02  0.4204E-44
REACH    4        0   305  0.9257E+02  0.7586E-02  0.4394E-02  0.5605E-44
REACH    1        0   306  0.2495E+02  0.8808E-03  0.7805E-03  0.1401E-44
REACH    2        0   306  0.5464E+02  0.3934E-02  0.1725E-02  0.2803E-44
REACH    3        0   306  0.1361E+02  0.1767E-02  0.1106E-02  0.4204E-44
REACH    4        0   306  0.9257E+02  0.6669E-02  0.2872E-02  0.5605E-44
REACH    1        0   307  0.2495E+02  0.8603E-03  0.7878E-03  0.1401E-44
REACH    2        0   307  0.5464E+02  0.3833E-02  0.1771E-02  0.2803E-44
REACH    3        0   307  0.1361E+02  0.1707E-02  0.1134E-02  0.4204E-44
REACH    4        0   307  0.9257E+02  0.6610E-02  0.2962E-02  0.5605E-44
REACH    1        0   308  0.2495E+02  0.8404E-03  0.7298E-03  0.1401E-44
REACH    2        0   308  0.5464E+02  0.3671E-02  0.1314E-02  0.2803E-44
REACH    3        0   308  0.1361E+02  0.1650E-02  0.9535E-03  0.4204E-44
REACH    4        0   308  0.9257E+02  0.5845E-02  0.1847E-02  0.5605E-44
REACH    1        0   309  0.2495E+02  0.8210E-03  0.7427E-03  0.1401E-44
REACH    2        0   309  0.5464E+02  0.3584E-02  0.1357E-02  0.2803E-44
REACH    3        0   309  0.1361E+02  0.1595E-02  0.9714E-03  0.4204E-44
REACH    4        0   309  0.9257E+02  0.5784E-02  0.1879E-02  0.5605E-44
REACH    1        0   310  0.2495E+02  0.8021E-03  0.7104E-03  0.1401E-44
REACH    2        0   310  0.5464E+02  0.3457E-02  0.1274E-02  0.2803E-44
REACH    3        0   310  0.1361E+02  0.1542E-02  0.9260E-03  0.4204E-44
REACH    4        0   310  0.9257E+02  0.5538E-02  0.1705E-02  0.5605E-44
REACH    1        0   311  0.2495E+02  0.7837E-03  0.6895E-03  0.1401E-44
REACH    2        0   311  0.5464E+02  0.3344E-02  0.1075E-02  0.2803E-44
REACH    3        0   311  0.1361E+02  0.1491E-02  0.8366E-03  0.4204E-44
REACH    4        0   311  0.9257E+02  0.5137E-02  0.1256E-02  0.5605E-44
REACH    1        0   312  0.2495E+02  0.7657E-03  0.6961E-03  0.1401E-44
REACH    2        0   312  0.5464E+02  0.3263E-02  0.1238E-02  0.2803E-44
REACH    3        0   312  0.1361E+02  0.1442E-02  0.8913E-03  0.4204E-44
REACH    4        0   312  0.9257E+02  0.5247E-02  0.1592E-02  0.5605E-44
REACH    1        0   313  0.2495E+02  0.7482E-03  0.6632E-03  0.1401E-44
REACH    2        0   313  0.5464E+02  0.3146E-02  0.1156E-02  0.2803E-44
REACH    3        0   313  0.1361E+02  0.1395E-02  0.8335E-03  0.4204E-44
REACH    4        0   313  0.9257E+02  0.5003E-02  0.1474E-02  0.5605E-44
REACH    1        0   314  0.2495E+02  0.6312E-02  0.6129E-02  0.1401E-44
REACH    2        0   314  0.5464E+02  0.1184E-01  0.7997E-02  0.2803E-44
REACH    3        0   314  0.1361E+02  0.1499E-02  0.4482E-03  0.4204E-44
REACH    4        0   314  0.9257E+02  0.1169E-01  0.3761E-02  0.5605E-44
REACH    1        0   315  0.2495E+02  0.8296E-03  0.7441E-03  0.1401E-44
REACH    2        0   315  0.5464E+02  0.3079E-02  0.5503E-03  0.2803E-44
REACH    3        0   315  0.1361E+02  0.1306E-02  0.5193E-03  0.4204E-44
REACH    4        0   315  0.9257E+02  0.3888E-02  0.6310E-03  0.5605E-44
REACH    1        0   316  0.2495E+02  0.7545E-03  0.7019E-03  0.1401E-44
REACH    2        0   316  0.5464E+02  0.2959E-02  0.1025E-02  0.2803E-44
REACH    3        0   316  0.1361E+02  0.1265E-02  0.7732E-03  0.4204E-44
REACH    4        0   316  0.9257E+02  0.4524E-02  0.1194E-02  0.5605E-44
REACH    1        0   317  0.2495E+02  0.7124E-03  0.6479E-03  0.1401E-44
REACH    2        0   317  0.5464E+02  0.2833E-02  0.1204E-02  0.2803E-44
REACH    3        0   317  0.1361E+02  0.1224E-02  0.7967E-03  0.4204E-44
REACH    4        0   317  0.9257E+02  0.4638E-02  0.1609E-02  0.5605E-44
REACH    1        0   318  0.2495E+02  0.6838E-03  0.6025E-03  0.1401E-44
REACH    2        0   318  0.5464E+02  0.2719E-02  0.9384E-03  0.2803E-44
REACH    3        0   318  0.1361E+02  0.1186E-02  0.6673E-03  0.4204E-44
REACH    4        0   318  0.9257E+02  0.4158E-02  0.1114E-02  0.5605E-44
REACH    1        0   319  0.2495E+02  0.6619E-03  0.5939E-03  0.1401E-44
REACH    2        0   319  0.5464E+02  0.2644E-02  0.8700E-03  0.2803E-44
REACH    3        0   319  0.1361E+02  0.1148E-02  0.6418E-03  0.4204E-44
REACH    4        0   319  0.9257E+02  0.3982E-02  0.9415E-03  0.5605E-44
REACH    1        0   320  0.2495E+02  0.6435E-03  0.5529E-03  0.1401E-44
REACH    2        0   320  0.5464E+02  0.2539E-02  0.6063E-03  0.2803E-44
REACH    3        0   320  0.1361E+02  0.1113E-02  0.5439E-03  0.4204E-44
REACH    4        0   320  0.9257E+02  0.3541E-02  0.3922E-03  0.5605E-44
REACH    1        0   321  0.2495E+02  0.3000E+00  0.2999E+00  0.1401E-44
REACH    2        0   321  0.5464E+02  0.5405E+00  0.5391E+00  0.2803E-44
REACH    3        0   321  0.1361E+02  0.7724E-01  0.7702E-01  0.4204E-44
REACH    4        0   321  0.9257E+02  0.6606E+00  0.6573E+00  0.5605E-44
REACH    1        0   322  0.2495E+02  0.2313E-02  0.2257E-02  0.1401E-44
REACH    2        0   322  0.5464E+02  0.4960E-02  0.1782E-02  0.2803E-44
REACH    3        0   322  0.1361E+02  0.1457E-02  0.5589E-03  0.4204E-44
REACH    4        0   322  0.9257E+02  0.5290E-02  0.9428E-03  0.5605E-44
REACH    1        0   323  0.2495E+02  0.1333E-02  0.1296E-02  0.1401E-44
REACH    2        0   323  0.5464E+02  0.3657E-02  0.2402E-02  0.2803E-44
REACH    3        0   323  0.1361E+02  0.1291E-02  0.9341E-03  0.4204E-44
REACH    4        0   323  0.9257E+02  0.6144E-02  0.2969E-02  0.5605E-44
REACH    1        0   324  0.2495E+02  0.1011E-02  0.9783E-03  0.1401E-44
REACH    2        0   324  0.5464E+02  0.3259E-02  0.2385E-02  0.2803E-44
REACH    3        0   324  0.1361E+02  0.1246E-02  0.9996E-03  0.4204E-44
REACH    4        0   324  0.9257E+02  0.6093E-02  0.4238E-02  0.5605E-44
REACH    1        0   325  0.2495E+02  0.2503E+00  0.2503E+00  0.1401E-44
REACH    2        0   325  0.5464E+02  0.4612E+00  0.4623E+00  0.2803E-44
REACH    3        0   325  0.1361E+02  0.5509E-01  0.5540E-01  0.4204E-44
REACH    4        0   325  0.9257E+02  0.5496E+00  0.5515E+00  0.5605E-44
REACH    1        0   326  0.2495E+02  0.1309E+01  0.1309E+01  0.1401E-44
REACH    2        0   326  0.5464E+02  0.2818E+01  0.2816E+01  0.2803E-44
REACH    3        0   326  0.1361E+02  0.4607E+00  0.4601E+00  0.4204E-44
REACH    4        0   326  0.9257E+02  0.3515E+01  0.3511E+01  0.5605E-44
REACH    1        0   327  0.2495E+02  0.1156E-01  0.1148E-01  0.1401E-44
REACH    2        0   327  0.5464E+02  0.2038E-01  0.1842E-01  0.2803E-44
REACH    3        0   327  0.1361E+02  0.4599E-02  0.4054E-02  0.4204E-44
REACH    4        0   327  0.9257E+02  0.3107E-01  0.2761E-01  0.5605E-44
REACH    1        0   328  0.2495E+02  0.5758E-02  0.5642E-02  0.1401E-44
REACH    2        0   328  0.5464E+02  0.1261E-01  0.8915E-02  0.2803E-44
REACH    3        0   328  0.1361E+02  0.3707E-02  0.2754E-02  0.4204E-44
REACH    4        0   328  0.9257E+02  0.1968E-01  0.1253E-01  0.5605E-44
REACH    1        0   329  0.2495E+02  0.3620E-02  0.3516E-02  0.1401E-44
REACH    2        0   329  0.5464E+02  0.1018E-01  0.7088E-02  0.2803E-44
REACH    3        0   329  0.1361E+02  0.3542E-02  0.2801E-02  0.4204E-44
REACH    4        0   329  0.9257E+02  0.1755E-01  0.1282E-01  0.5605E-44
REACH    1        0   330  0.2495E+02  0.2538E-02  0.2498E-02  0.1401E-44
REACH    2        0   330  0.5464E+02  0.8882E-02  0.7408E-02  0.2803E-44
REACH    3        0   330  0.1361E+02  0.3388E-02  0.3027E-02  0.4204E-44
REACH    4        0   330  0.9257E+02  0.1776E-01  0.1567E-01  0.5605E-44
REACH    1        0   331  0.2495E+02  0.1972E-02  0.1941E-02  0.1401E-44
REACH    2        0   331  0.5464E+02  0.8057E-02  0.7133E-02  0.2803E-44
REACH    3        0   331  0.1361E+02  0.3242E-02  0.2989E-02  0.4204E-44
REACH    4        0   331  0.9257E+02  0.1712E-01  0.1556E-01  0.5605E-44
REACH    1        0   332  0.2495E+02  0.4669E+00  0.4669E+00  0.1401E-44
REACH    2        0   332  0.5464E+02  0.8366E+00  0.8378E+00  0.2803E-44
REACH    3        0   332  0.1361E+02  0.1168E+00  0.1169E+00  0.4204E-44
REACH    4        0   332  0.9257E+02  0.1008E+01  0.1010E+01  0.5605E-44
REACH    1        0   333  0.2495E+02  0.6060E-02  0.5989E-02  0.1401E-44
REACH    2        0   333  0.5464E+02  0.1502E-01  0.1321E-01  0.2803E-44
REACH    3        0   333  0.1361E+02  0.4160E-02  0.3656E-02  0.4204E-44
REACH    4        0   333  0.9257E+02  0.2527E-01  0.2181E-01  0.5605E-44
REACH    1        0   334  0.2495E+02  0.5738E+00  0.5737E+00  0.1401E-44
REACH    2        0   334  0.5464E+02  0.1292E+01  0.1291E+01  0.2803E-44
REACH    3        0   334  0.1361E+02  0.2477E+00  0.2473E+00  0.4204E-44
REACH    4        0   334  0.9257E+02  0.1661E+01  0.1659E+01  0.5605E-44
REACH    1        0   335  0.2495E+02  0.7761E-02  0.7705E-02  0.1401E-44
REACH    2        0   335  0.5464E+02  0.1770E-01  0.1630E-01  0.2803E-44
REACH    3        0   335  0.1361E+02  0.5318E-02  0.4928E-02  0.4204E-44
REACH    4        0   335  0.9257E+02  0.3155E-01  0.2908E-01  0.5605E-44
REACH    1        0   336  0.2495E+02  0.4484E-02  0.4387E-02  0.1401E-44
REACH    2        0   336  0.5464E+02  0.1322E-01  0.1016E-01  0.2803E-44
REACH    3        0   336  0.1361E+02  0.4714E-02  0.4030E-02  0.4204E-44
REACH    4        0   336  0.9257E+02  0.2396E-01  0.1885E-01  0.5605E-44
REACH    1        0   337  0.2495E+02  0.3162E-02  0.3116E-02  0.1401E-44
REACH    2        0   337  0.5464E+02  0.1156E-01  0.9929E-02  0.2803E-44
REACH    3        0   337  0.1361E+02  0.4505E-02  0.4181E-02  0.4204E-44
REACH    4        0   337  0.9257E+02  0.2344E-01  0.2141E-01  0.5605E-44
REACH    1        0   338  0.2495E+02  0.2477E-02  0.2441E-02  0.1401E-44
REACH    2        0   338  0.5464E+02  0.1053E-01  0.9400E-02  0.2803E-44
REACH    3        0   338  0.1361E+02  0.4310E-02  0.4057E-02  0.4204E-44
REACH    4        0   338  0.9257E+02  0.2238E-01  0.2030E-01  0.5605E-44
REACH    1        0   339  0.2495E+02  0.4683E+00  0.4683E+00  0.1401E-44
REACH    2        0   339  0.5464E+02  0.9908E+00  0.9915E+00  0.2803E-44
REACH    3        0   339  0.1361E+02  0.1565E+00  0.1563E+00  0.4204E-44
REACH    4        0   339  0.9257E+02  0.1236E+01  0.1237E+01  0.5605E-44
REACH    1        0   340  0.2495E+02  0.4329E+00  0.4329E+00  0.1401E-44
REACH    2        0   340  0.5464E+02  0.8759E+00  0.8750E+00  0.2803E-44
REACH    3        0   340  0.1361E+02  0.1311E+00  0.1309E+00  0.4204E-44
REACH    4        0   340  0.9257E+02  0.1078E+01  0.1076E+01  0.5605E-44
REACH    1        0   341  0.2495E+02  0.8224E-02  0.8195E-02  0.1401E-44
REACH    2        0   341  0.5464E+02  0.1963E-01  0.1892E-01  0.2803E-44
REACH    3        0   341  0.1361E+02  0.5856E-02  0.5657E-02  0.4204E-44
REACH    4        0   341  0.9257E+02  0.3643E-01  0.2902E-01  0.5605E-44
REACH    1        0   342  0.2495E+02  0.4981E-02  0.4923E-02  0.1401E-44
REACH    2        0   342  0.5464E+02  0.1542E-01  0.1395E-01  0.2803E-44
REACH    3        0   342  0.1361E+02  0.5407E-02  0.4999E-02  0.4204E-44
REACH    4        0   342  0.9257E+02  0.3023E-01  0.2786E-01  0.5605E-44
REACH    1        0   343  0.2495E+02  0.1990E+00  0.1990E+00  0.1401E-44
REACH    2        0   343  0.5464E+02  0.3926E+00  0.3916E+00  0.2803E-44
REACH    3        0   343  0.1361E+02  0.7032E-01  0.7004E-01  0.4204E-44
REACH    4        0   343  0.9257E+02  0.5022E+00  0.5064E+00  0.5605E-44
REACH    1        0   344  0.2495E+02  0.5034E-02  0.5006E-02  0.1401E-44
REACH    2        0   344  0.5464E+02  0.1575E-01  0.1504E-01  0.2803E-44
REACH    3        0   344  0.1361E+02  0.5564E-02  0.5366E-02  0.4204E-44
REACH    4        0   344  0.9257E+02  0.3176E-01  0.3050E-01  0.5605E-44
REACH    1        0   345  0.2495E+02  0.3524E-02  0.3464E-02  0.1401E-44
REACH    2        0   345  0.5464E+02  0.1356E-01  0.1155E-01  0.2803E-44
REACH    3        0   345  0.1361E+02  0.5223E-02  0.4803E-02  0.4204E-44
REACH    4        0   345  0.9257E+02  0.2718E-01  0.2452E-01  0.5605E-44
REACH    1        0   346  0.2495E+02  0.2853E-02  0.2796E-02  0.1401E-44
REACH    2        0   346  0.5464E+02  0.1247E-01  0.1077E-01  0.2803E-44
REACH    3        0   346  0.1361E+02  0.4995E-02  0.4589E-02  0.4204E-44
REACH    4        0   346  0.9257E+02  0.2572E-01  0.2315E-01  0.5605E-44
REACH    1        0   347  0.2495E+02  0.2488E-02  0.2425E-02  0.1401E-44
REACH    2        0   347  0.5464E+02  0.1169E-01  0.9909E-02  0.2803E-44
REACH    3        0   347  0.1361E+02  0.4780E-02  0.4381E-02  0.4204E-44
REACH    4        0   347  0.9257E+02  0.2420E-01  0.2066E-01  0.5605E-44
REACH    1        0   348  0.2495E+02  0.2276E-02  0.2232E-02  0.1401E-44
REACH    2        0   348  0.5464E+02  0.1111E-01  0.9835E-02  0.2803E-44
REACH    3        0   348  0.1361E+02  0.4576E-02  0.4271E-02  0.4204E-44
REACH    4        0   348  0.9257E+02  0.2359E-01  0.2168E-01  0.5605E-44
REACH    1        0   349  0.2495E+02  0.2141E-02  0.2127E-02  0.1401E-44
REACH    2        0   349  0.5464E+02  0.1064E-01  0.1011E-01  0.2803E-44
REACH    3        0   349  0.1361E+02  0.4382E-02  0.4286E-02  0.4204E-44
REACH    4        0   349  0.9257E+02  0.2348E-01  0.2276E-01  0.5605E-44
REACH    1        0   350  0.2495E+02  0.9877E+00  0.9877E+00  0.1401E-44
REACH    2        0   350  0.5464E+02  0.2075E+01  0.2075E+01  0.2803E-44
REACH    3        0   350  0.1361E+02  0.2919E+00  0.2918E+00  0.4204E-44
REACH    4        0   350  0.9257E+02  0.2530E+01  0.2531E+01  0.5605E-44
REACH    1        0   351  0.2495E+02  0.9826E-02  0.9787E-02  0.1401E-44
REACH    2        0   351  0.5464E+02  0.2251E-01  0.1862E-01  0.2803E-44
REACH    3        0   351  0.1361E+02  0.6159E-02  0.5889E-02  0.4204E-44
REACH    4        0   351  0.9257E+02  0.3673E-01  0.2902E-01  0.5605E-44
REACH    1        0   352  0.2495E+02  0.1142E+00  0.1142E+00  0.1401E-44
REACH    2        0   352  0.5464E+02  0.2560E+00  0.2577E+00  0.2803E-44
REACH    3        0   352  0.1361E+02  0.4989E-01  0.4957E-01  0.4204E-44
REACH    4        0   352  0.9257E+02  0.3406E+00  0.3446E+00  0.5605E-44
REACH    1        0   353  0.2495E+02  0.5690E-02  0.5648E-02  0.1401E-44
REACH    2        0   353  0.5464E+02  0.1725E-01  0.1618E-01  0.2803E-44
REACH    3        0   353  0.1361E+02  0.5749E-02  0.5450E-02  0.4204E-44
REACH    4        0   353  0.9257E+02  0.3363E-01  0.2496E-01  0.5605E-44
REACH    1        0   354  0.2495E+02  0.4023E-02  0.3954E-02  0.1401E-44
REACH    2        0   354  0.5464E+02  0.1494E-01  0.1317E-01  0.2803E-44
REACH    3        0   354  0.1361E+02  0.5435E-02  0.4944E-02  0.4204E-44
REACH    4        0   354  0.9257E+02  0.2958E-01  0.2739E-01  0.5605E-44
REACH    1        0   355  0.2495E+02  0.3212E-02  0.3155E-02  0.1401E-44
REACH    2        0   355  0.5464E+02  0.1368E-01  0.1176E-01  0.2803E-44
REACH    3        0   355  0.1361E+02  0.5202E-02  0.4796E-02  0.4204E-44
REACH    4        0   355  0.9257E+02  0.2753E-01  0.2411E-01  0.5605E-44
REACH    1        0   356  0.2495E+02  0.2773E-02  0.2719E-02  0.1401E-44
REACH    2        0   356  0.5464E+02  0.1281E-01  0.1127E-01  0.2803E-44
REACH    3        0   356  0.1361E+02  0.4981E-02  0.4603E-02  0.4204E-44
REACH    4        0   356  0.9257E+02  0.2638E-01  0.2387E-01  0.5605E-44
REACH    1        0   357  0.2495E+02  0.2520E-02  0.2471E-02  0.1401E-44
REACH    2        0   357  0.5464E+02  0.1215E-01  0.1072E-01  0.2803E-44
REACH    3        0   357  0.1361E+02  0.4772E-02  0.4430E-02  0.4204E-44
REACH    4        0   357  0.9257E+02  0.2521E-01  0.2983E-01  0.5605E-44
REACH    1        0   358  0.2495E+02  0.2362E-02  0.2291E-02  0.1401E-44
REACH    2        0   358  0.5464E+02  0.1157E-01  0.9691E-02  0.2803E-44
REACH    3        0   358  0.1361E+02  0.4573E-02  0.4076E-02  0.4204E-44
REACH    4        0   358  0.9257E+02  0.2340E-01  0.1922E-01  0.5605E-44
REACH    1        0   359  0.2495E+02  0.2253E-02  0.2216E-02  0.1401E-44
REACH    2        0   359  0.5464E+02  0.1135E-01  0.1028E-01  0.2803E-44
REACH    3        0   359  0.1361E+02  0.8207E-02  0.7945E-02  0.4204E-44
REACH    4        0   359  0.9257E+02  0.3087E-01  0.3024E-01  0.5605E-44
REACH    1        0   360  0.2495E+02  0.4480E-01  0.4473E-01  0.1401E-44
REACH    2        0   360  0.5464E+02  0.9324E-01  0.9247E-01  0.2803E-44
REACH    3        0   360  0.1361E+02  0.1068E-01  0.1019E-01  0.4204E-44
REACH    4        0   360  0.9257E+02  0.1165E+00  0.1133E+00  0.5605E-44
REACH    1        0   361  0.2495E+02  0.2569E-02  0.2523E-02  0.1401E-44
REACH    2        0   361  0.5464E+02  0.1102E-01  0.8434E-02  0.2803E-44
REACH    3        0   361  0.1361E+02  0.4182E-02  0.3857E-02  0.4204E-44
REACH    4        0   361  0.9257E+02  0.2121E-01  0.1724E-01  0.5605E-44
REACH    1        0   362  0.2495E+02  0.2271E-02  0.2218E-02  0.1401E-44
REACH    2        0   362  0.5464E+02  0.1034E-01  0.9252E-02  0.2803E-44
REACH    3        0   362  0.1361E+02  0.4004E-02  0.3630E-02  0.4204E-44
REACH    4        0   362  0.9257E+02  0.2143E-01  0.1988E-01  0.5605E-44
REACH    1        0   363  0.2495E+02  0.3069E+00  0.3069E+00  0.1401E-44
REACH    2        0   363  0.5464E+02  0.6749E+00  0.6748E+00  0.2803E-44
REACH    3        0   363  0.1361E+02  0.1155E+00  0.1151E+00  0.4204E-44
REACH    4        0   363  0.9257E+02  0.8636E+00  0.8624E+00  0.5605E-44
REACH    1        0   364  0.2495E+02  0.4531E-02  0.4472E-02  0.1401E-44
REACH    2        0   364  0.5464E+02  0.1385E-01  0.1199E-01  0.2803E-44
REACH    3        0   364  0.1361E+02  0.4625E-02  0.4216E-02  0.4204E-44
REACH    4        0   364  0.9257E+02  0.2598E-01  0.2339E-01  0.5605E-44
REACH    1        0   365  0.2495E+02  0.3123E-02  0.3067E-02  0.1401E-44
REACH    2        0   365  0.5464E+02  0.1170E-01  0.9594E-02  0.2803E-44
REACH    3        0   365  0.1361E+02  0.4268E-02  0.3870E-02  0.4204E-44
REACH    4        0   365  0.9257E+02  0.2278E-01  0.1895E-01  0.5605E-44
