1
    SWAT Dec 6 2013    VER 2012/Rev 613                                                                  0/ 0/   0      0: 0: 0

    General Input/Output section (file.cio):                                        
    2/7/2013 12:00:00 AM ARCGIS-SWAT interface AV                                   
                                                                                    
         Number of years in run:    3
         Area of watershed:       92.569 km2
1
    SWAT Dec 6 2013    VER 2012/Rev 613                                             

    General Input/Output section (file.cio):                                        
    2/7/2013 12:00:00 AM ARCGIS-SWAT interface AV                                   
                                                                                    
Annual Summary for Watershed in year    1 of simulation

UNIT                                    PERCO    TILE                           WATER     SED     NO3     NO3     NO3     NO3        N       P       P
TIME     PREC    SURQ    LATQ     GWQ    LATE       Q     SW       ET     PET   YIELD   YIELD    SURQ    LATQ    PERC    CROP  ORGANIC SOLUBLE ORGANIC TILENO3
         (mm)    (mm)    (mm)    (mm)    (mm)    (mm)    (mm)    (mm)    (mm)    (mm)    (mm)   ------------------(kg nutrient/ha)-------------------- (kg/ha)
1
    SWAT Dec 6 2013    VER 2012/Rev 613                                             

    General Input/Output section (file.cio):                                        
    2/7/2013 12:00:00 AM ARCGIS-SWAT interface AV                                   
                                                                                    
Annual Summary for Watershed in year    2 of simulation

UNIT                                    PERCO    TILE                           WATER     SED     NO3     NO3     NO3     NO3        N       P       P
TIME     PREC    SURQ    LATQ     GWQ    LATE       Q     SW       ET     PET   YIELD   YIELD    SURQ    LATQ    PERC    CROP  ORGANIC SOLUBLE ORGANIC TILENO3
         (mm)    (mm)    (mm)    (mm)    (mm)    (mm)    (mm)    (mm)    (mm)    (mm)    (mm)   ------------------(kg nutrient/ha)-------------------- (kg/ha)
    1    5.14    0.20    0.03    0.67    3.17    0.00  175.18    0.50    1.28    0.89    0.00    0.00    0.00    0.08    0.00     0.00    0.00    0.00    0.00
    2    0.00    0.00    0.03    0.68    1.93    0.00  172.43    0.81    1.93    0.70    0.00    0.00    0.00    0.05    0.00     0.00    0.00    0.00    0.00
    3    0.00    0.00    0.03    0.68    1.13    0.00  170.55    0.73    2.08    0.71    0.00    0.00    0.00    0.03    0.00     0.00    0.00    0.00    0.00
    4    0.00    0.00    0.03    0.69    0.66    0.00  169.27    0.62    1.93    0.72    0.00    0.00    0.00    0.02    0.00     0.00    0.00    0.00    0.00
    5    6.19    0.27    0.03    0.70    0.69    0.00  173.49    0.97    1.27    1.00    0.00    0.01    0.00    0.01    0.00     0.00    0.00    0.00    0.00
    6    1.17    0.01    0.03    0.70    0.72    0.00  172.09    1.82    3.10    0.74    0.00    0.00    0.00    0.02    0.00     0.00    0.00    0.00    0.00
    7    0.00    0.00    0.03    0.71    0.43    0.00  170.61    1.05    2.60    0.73    0.00    0.00    0.00    0.01    0.00     0.00    0.00    0.00    0.00
    8    9.99    0.12    0.03    0.71    0.24    0.00  173.60    0.37    0.59    0.86    0.00    0.00    0.00    0.01    0.00     0.00    0.00    0.00    0.00
    9    1.23    0.06    0.03    0.71    0.14    0.00  175.10    0.31    0.56    0.80    0.00    0.00    0.00    0.00    0.00     0.00    0.00    0.00    0.00
   10    7.91    0.00    0.02    0.72    0.07    0.00  174.86    0.17    0.39    0.74    0.00    0.00    0.00    0.00    0.00     0.00    0.00    0.00    0.00
   11    5.52    0.00    0.02    0.72    0.04    0.00  174.72    0.10    0.24    0.74    0.00    0.00    0.00    0.00    0.00     0.00    0.00    0.00    0.00
   12    0.12    2.21    0.04    0.72    3.65    0.00  185.84    1.81    2.12    2.97    0.01    0.01    0.00    0.11    0.00     0.02    0.00    0.00    0.00
   13    4.20    0.12    0.03    0.73    3.60    0.00  184.84    1.39    2.25    0.89    0.00    0.00    0.00    0.12    0.00     0.00    0.00    0.00    0.00
   14    0.00    0.00    0.03    0.74    2.18    0.00  181.90    0.75    1.53    0.77    0.00    0.00    0.00    0.07    0.00     0.00    0.00    0.00    0.00
   15    0.00    0.00    0.03    0.75    1.28    0.00  179.25    1.34    2.97    0.78    0.00    0.00    0.00    0.04    0.00     0.00    0.00    0.00    0.00
   16    0.00    0.00    0.03    0.76    0.74    0.00  177.54    0.96    2.44    0.79    0.00    0.00    0.00    0.02    0.00     0.00    0.00    0.00    0.00
   17    0.00    0.00    0.03    0.77    0.42    0.00  176.65    0.47    1.31    0.80    0.00    0.00    0.00    0.01    0.00     0.00    0.00    0.00    0.00
   18   10.28    1.01    0.04    0.77    0.24    0.00  185.15    0.45    0.73    1.82    0.01    0.01    0.00    0.01    0.00     0.02    0.00    0.00    0.00
   19    1.28    0.01    0.03    0.78    0.14    0.00  184.38    1.90    2.39    0.82    0.00    0.00    0.00    0.00    0.00     0.00    0.00    0.00    0.00
   20    6.25    0.00    0.03    0.78    0.06    0.00  183.56    0.76    1.67    0.81    0.00    0.00    0.00    0.00    0.00     0.00    0.00    0.00    0.00
   21    0.00    0.01    0.03    0.79    0.05    0.00  184.50    0.40    0.82    0.83    0.00    0.00    0.00    0.00    0.00     0.00    0.00    0.00    0.00
   22    0.00    0.13    0.03    0.79    1.69    0.00  186.38    1.07    1.84    0.95    0.00    0.00    0.00    0.06    0.00     0.00    0.00    0.00    0.00
   23    0.00    0.00    0.03    0.79    1.04    0.00  183.83    1.50    3.20    0.82    0.00    0.00    0.00    0.03    0.00     0.00    0.00    0.00    0.00
   24    3.23    0.06    0.03    0.80    1.35    0.00  184.08    1.52    2.99    0.89    0.00    0.00    0.00    0.05    0.00     0.00    0.00    0.00    0.00
   25    3.97    0.24    0.03    0.80    0.82    0.00  185.61    1.35    1.92    1.07    0.00    0.00    0.00    0.03    0.00     0.00    0.00    0.00    0.00
   26    0.00    0.00    0.03    0.81    0.47    0.00  184.58    0.56    1.09    0.83    0.00    0.00    0.00    0.02    0.00     0.00    0.00    0.00    0.00
   27    0.00    0.00    0.03    0.81    0.27    0.00  184.06    0.24    0.50    0.83    0.00    0.00    0.00    0.01    0.00     0.00    0.00    0.00    0.00
   28    0.00    0.00    0.03    0.81    0.16    0.00  183.06    0.84    1.80    0.83    0.00    0.00    0.00    0.01    0.00     0.00    0.00    0.00    0.00
   29    0.00    0.00    0.02    0.81    0.08    0.00  182.02    0.96    2.26    0.83    0.00    0.00    0.00    0.00    0.00     0.00    0.00    0.00    0.00
   30    0.00    0.00    0.02    0.81    0.03    0.00  180.97    1.01    2.60    0.83    0.00    0.00    0.00    0.00    0.00     0.00    0.00    0.00    0.00
   31    0.00    0.00    0.02    0.80    0.00    0.00  179.99    0.98    2.78    0.83    0.00    0.00    0.00    0.00    0.00     0.00    0.00    0.00    0.00
    1   66.46    4.46    0.88   23.30   27.50    0.00  179.99   27.71   55.20   28.63    0.03    0.03    0.01    0.81    0.00     0.06    0.00    0.01    0.00
   32    3.50    0.05    0.02    0.80    0.05    0.00  182.13    0.47    1.30    0.87    0.00    0.00    0.00    0.00    0.00     0.00    0.00    0.00    0.00
   33    0.00    0.00    0.02    0.80    0.19    0.00  181.70    1.00    2.01    0.82    0.00    0.00    0.00    0.01    0.00     0.00    0.00    0.00    0.00
   34    0.00    0.00    0.02    0.79    0.12    0.00  180.95    0.64    1.46    0.81    0.00    0.00    0.00    0.00    0.00     0.00    0.00    0.00    0.00
   35    0.00    0.00    0.02    0.79    0.06    0.00  180.05    0.84    2.26    0.81    0.00    0.00    0.00    0.00    0.00     0.00    0.00    0.00    0.00
   36    0.00    0.00    0.02    0.78    0.03    0.00  179.27    0.75    2.22    0.80    0.00    0.00    0.00    0.00    0.00     0.00    0.00    0.00    0.00
   37    0.30    0.00    0.02    0.77    0.01    0.00  179.33    0.23    0.61    0.79    0.00    0.00    0.00    0.00    0.00     0.00    0.00    0.00    0.00
   38    1.30    0.01    0.02    0.77    0.00    0.00  179.68    0.94    1.94    0.80    0.00    0.00    0.00    0.00    0.00     0.00    0.00    0.00    0.00
   39    8.23    0.67    0.02    0.76    0.00    0.00  185.41    1.78    2.04    1.45    0.01    0.01    0.00    0.00    0.00     0.02    0.00    0.00    0.00
   40    6.69    0.28    0.02    0.75    1.99    0.00  188.73    1.02    1.59    1.06    0.00    0.00    0.00    0.08    0.00     0.01    0.00    0.00    0.00
   41    0.39    0.00    0.02    0.75    1.23    0.00  187.22    0.65    1.05    0.77    0.00    0.00    0.00    0.05    0.00     0.00    0.00    0.00    0.00
   42    8.88    0.83    0.03    0.74    0.72    0.00  192.90    1.58    2.13    1.60    0.01    0.00    0.00    0.03    0.00     0.01    0.00    0.00    0.00
   43    1.00    0.01    0.03    0.74    0.41    0.00  192.83    0.65    0.99    0.77    0.00    0.00    0.00    0.02    0.00     0.00    0.00    0.00    0.00
   44    0.00    0.00    0.02    0.74    0.23    0.00  191.52    1.07    1.71    0.76    0.00    0.00    0.00    0.01    0.00     0.00    0.00    0.00    0.00
   45    0.00    0.00    0.02    0.73    0.12    0.00  190.39    1.01    1.96    0.75    0.00    0.00    0.00    0.00    0.00     0.00    0.00    0.00    0.00
   46    0.00    0.00    0.02    0.72    0.06    0.00  189.50    0.83    1.81    0.75    0.00    0.00    0.00    0.00    0.00     0.00    0.00    0.00    0.00
   47    0.00    0.00    0.02    0.72    0.02    0.00  188.78    0.70    1.66    0.74    0.00    0.00    0.00    0.00    0.00     0.00    0.00    0.00    0.00
   48    0.00    0.00    0.02    0.71    0.00    0.00  188.18    0.60    1.52    0.73    0.00    0.00    0.00    0.00    0.00     0.00    0.00    0.00    0.00
   49    8.77    0.82    0.03    0.70    0.00    0.00  194.75    1.32    2.03    1.54    0.01    0.00    0.00    0.00    0.00     0.02    0.00    0.00    0.00
   50    2.37    0.09    0.02    0.69    0.00    0.00  195.26    1.75    2.71    0.81    0.00    0.00    0.00    0.00    0.00     0.00    0.00    0.00    0.00
   51    0.00    0.00    0.02    0.69    0.00    0.00  193.54    1.72    3.99    0.71    0.00    0.00    0.00    0.00    0.00     0.00    0.00    0.00    0.00
   52   15.12    2.31    0.03    0.68    3.44    0.00  200.47    2.28    4.08    3.01    0.02    0.02    0.00    0.18    0.00     0.03    0.00    0.00    0.00
   53    0.15    0.00    0.03    0.68    2.11    0.00  197.62    0.87    2.13    0.71    0.00    0.00    0.00    0.11    0.00     0.00    0.00    0.00    0.00
   54    0.00    0.00    0.02    0.68    1.24    0.00  195.52    0.85    2.20    0.71    0.00    0.00    0.00    0.06    0.00     0.00    0.00    0.00    0.00
   55    7.79    0.69    0.03    0.68    0.72    0.00  200.90    0.94    1.41    1.40    0.02    0.00    0.00    0.04    0.00     0.03    0.00    0.00    0.00
   56    0.00    0.00    0.03    0.68    0.41    0.00  198.28    2.21    3.86    0.71    0.00    0.00    0.00    0.02    0.00     0.00    0.00    0.00    0.00
   57    2.30    0.04    0.02    0.68    0.22    0.00  198.29    2.02    3.37    0.74    0.00    0.00    0.00    0.01    0.00     0.00    0.00    0.00    0.00
   58    0.93    0.00    0.02    0.68    0.12    0.00  197.76    1.34    2.44    0.70    0.00    0.00    0.00    0.01    0.00     0.00    0.00    0.00    0.00
   59    0.00    0.00    0.02    0.67    0.06    0.00  196.67    1.03    2.45    0.70    0.00    0.00    0.00    0.00    0.00     0.00    0.00    0.00    0.00
   60    0.00    0.00    0.02    0.67    0.02    0.00  195.67    0.97    2.57    0.69    0.00    0.00    0.00    0.00    0.00     0.00    0.00    0.00    0.00
    2   67.73    5.79    0.67   21.05   13.58    0.00  195.67   32.06   61.47   27.51    0.08    0.04    0.01    0.62    0.00     0.12    0.00    0.02    0.00
   61    0.00    0.00    0.02    0.67    0.00    0.00  194.55    1.11    3.19    0.69    0.00    0.00    0.00    0.00    0.00     0.00    0.00    0.00    0.00
   62    1.50    0.03    0.02    0.66    0.00    0.00  194.39    1.64    2.91    0.71    0.00    0.00    0.00    0.00    0.00     0.00    0.00    0.00    0.00
   63    0.00    0.00    0.02    0.66    0.00    0.00  193.41    0.98    2.79    0.68    0.00    0.00    0.00    0.00    0.00     0.00    0.00    0.00    0.00
   64    0.00    0.00    0.02    0.65    0.00    0.00  192.16    1.25    4.04    0.67    0.00    0.00    0.00    0.00    0.00     0.00    0.00    0.00    0.00
   65    0.00    0.00    0.02    0.64    0.00    0.00  190.89    1.27    4.76    0.66    0.00    0.00    0.00    0.00    0.00     0.00    0.00    0.00    0.00
   66    7.10    0.21    0.02    0.64    0.12    0.00  194.86    2.76    4.14    0.87    0.00    0.00    0.00    0.00    0.00     0.01    0.00    0.00    0.00
   67    5.01    0.11    0.02    0.63    1.11    0.00  196.48    2.12    3.26    0.76    0.00    0.00    0.00    0.06    0.00     0.00    0.00    0.00    0.00
   68    0.78    0.00    0.02    0.63    0.67    0.00  194.36    2.23    4.71    0.65    0.00    0.00    0.00    0.03    0.00     0.00    0.00    0.00    0.00
   69    0.90    0.00    0.02    0.62    0.36    0.00  193.77    1.12    1.99    0.64    0.00    0.00    0.00    0.02    0.00     0.00    0.00    0.00    0.00
   70    0.00    0.00    0.02    0.62    0.19    0.00  192.63    0.95    2.50    0.63    0.00    0.00    0.00    0.01    0.00     0.00    0.00    0.00    0.00
   71    0.00    0.00    0.02    0.61    0.09    0.00  191.54    0.99    3.08    0.63    0.00    0.00    0.00    0.00    0.00     0.00    0.00    0.00    0.00
   72    1.11    0.01    0.02    0.60    0.03    0.00  190.48    2.13    5.78    0.63    0.00    0.00    0.00    0.00    0.00     0.00    0.00    0.00    0.00
   73    4.17    0.10    0.02    0.60    0.47    0.00  192.38    1.66    3.91    0.71    0.00    0.00    0.00    0.02    0.00     0.00    0.00    0.00    0.00
   74    0.76    0.00    0.02    0.59    0.28    0.00  191.21    1.65    3.98    0.61    0.00    0.00    0.00    0.01    0.00     0.00    0.00    0.00    0.00
   75    7.59    0.41    0.02    0.59    2.32    0.00  195.16    0.81    2.30    1.02    0.01    0.00    0.00    0.14    0.00     0.01    0.00    0.00    0.00
   76    0.75    0.00    0.02    0.59    1.51    0.00  192.87    1.50    3.64    0.61    0.00    0.00    0.00    0.09    0.00     0.00    0.00    0.00    0.00
   77    7.93    0.71    0.02    0.59    0.89    0.00  197.44    1.73    2.55    1.32    0.03    0.01    0.00    0.05    0.00     0.04    0.00    0.01    0.00
   78   23.08    2.94    0.04    0.59    0.50    0.00  215.82    1.04    1.63    3.57    0.04    0.01    0.00    0.03    0.00     0.10    0.00    0.01    0.00
   79    0.00    0.00    0.03    0.59    0.28    0.00  213.19    2.35    4.05    0.62    0.00    0.00    0.00    0.02    0.00     0.00    0.00    0.00    0.00
   80    1.38    0.02    0.03    0.58    0.22    0.00  212.43    1.90    3.02    0.63    0.00    0.00    0.00    0.03    0.00     0.00    0.00    0.00    0.00
   81    0.00    0.00    0.03    0.58    0.10    0.00  210.08    2.25    5.43    0.61    0.00    0.00    0.00    0.01    0.00     0.00    0.00    0.00    0.00
   82    7.76    0.35    0.03    0.58    1.50    0.00  213.73    2.19    4.01    0.95    0.01    0.00    0.00    0.10    0.00     0.01    0.00    0.00    0.00
   83    0.00    0.00    0.03    0.58    0.89    0.00  211.68    1.14    2.91    0.61    0.00    0.00    0.00    0.06    0.00     0.00    0.00    0.00    0.00
   84    0.00    0.00    0.02    0.58    0.50    0.00  209.70    1.48    4.21    0.60    0.00    0.00    0.00    0.03    0.00     0.00    0.00    0.00    0.00
   85    0.00    0.00    0.02    0.58    0.26    0.00  207.93    1.50    4.85    0.60    0.00    0.00    0.00    0.02    0.00     0.00    0.00    0.00    0.00
   86    1.27    0.01    0.02    0.58    0.11    0.00  207.44    1.65    3.93    0.61    0.00    0.00    0.00    0.01    0.00     0.00    0.00    0.00    0.00
   87    1.35    0.01    0.02    0.58    0.04    0.00  207.11    1.63    3.95    0.61    0.00    0.00    0.00    0.00    0.00     0.00    0.00    0.00    0.00
   88    0.00    0.00    0.02    0.57    0.00    0.00  205.59    1.51    5.10    0.59    0.00    0.00    0.00    0.00    0.00     0.00    0.00    0.00    0.00
   89    0.00    0.00    0.02    0.57    0.00    0.00  204.64    0.95    3.71    0.59    0.00    0.00    0.00    0.00    0.00     0.00    0.00    0.00    0.00
   90    5.57    0.12    0.02    0.57    0.26    0.00  208.82    0.98    1.30    0.70    0.00    0.00    0.00    0.01    0.00     0.01    0.00    0.00    0.00
   91    0.00    0.00    0.02    0.56    0.16    0.00  207.60    1.05    2.15    0.58    0.00    0.00    0.00    0.01    0.00     0.00    0.00    0.00    0.00
    3   78.03    5.03    0.69   18.66   12.87    0.00  207.60   47.53  109.79   24.38    0.10    0.02    0.01    0.78    0.00     0.18    0.00    0.02    0.00
   92    0.00    0.00    0.02    0.56    0.08    0.00  205.92    1.60    4.09    0.58    0.00    0.00    0.00    0.00    0.00     0.00    0.00    0.00    0.00
   93    0.00    0.00    0.02    0.55    0.03    0.00  204.38    1.52    5.04    0.57    0.00    0.00    0.00    0.00    0.00     0.00    0.00    0.00    0.00
   94    0.00    0.00    0.02    0.55    0.00    0.00  203.24    1.13    4.56    0.57    0.00    0.00    0.00    0.00    0.00     0.00    0.00    0.00    0.00
   95    0.00    0.00    0.02    0.54    0.00    0.00  201.92    1.33    5.91    0.56    0.00    0.00    0.00    0.00    0.00     0.00    0.00    0.00    0.00
   96    0.00    0.00    0.02    0.54    0.00    0.00  200.61    1.30    6.37    0.55    0.00    0.00    0.00    0.00    0.00     0.00    0.00    0.00    0.00
   97    1.21    0.01    0.02    0.53    0.00    0.00  200.33    1.48    4.96    0.55    0.00    0.00    0.00    0.00    0.00     0.00    0.00    0.00    0.00
   98    4.87    0.12    0.02    0.52    0.12    0.00  203.12    1.81    4.93    0.66    0.00    0.00    0.00    0.01    0.00     0.00    0.00    0.00    0.00
   99    0.00    0.00    0.02    0.52    0.05    0.00  201.66    1.40    5.07    0.53    0.00    0.00    0.00    0.00    0.00     0.00    0.00    0.00    0.00
  100    3.32    0.17    0.02    0.51    0.01    0.00  202.58    2.21    5.43    0.70    0.01    0.00    0.00    0.00    0.00     0.01    0.00    0.00    0.00
  101    0.00    0.00    0.02    0.50    0.00    0.00  201.16    1.42    5.66    0.52    0.00    0.00    0.00    0.00    0.00     0.00    0.00    0.00    0.00
  102    0.44    0.00    0.02    0.50    0.00    0.00  200.60    1.01    3.46    0.51    0.00    0.00    0.00    0.00    0.00     0.00    0.00    0.00    0.00
  103    7.64    0.53    0.02    0.49    0.00    0.00  206.88    0.80    1.07    1.03    0.02    0.00    0.00    0.00    0.00     0.03    0.00    0.00    0.00
  104    0.51    0.00    0.02    0.48    0.00    0.00  205.92    1.47    2.61    0.50    0.00    0.00    0.00    0.00    0.00     0.00    0.00    0.00    0.00
  105    0.16    0.00    0.02    0.47    0.00    0.00  204.52    1.56    3.94    0.49    0.00    0.00    0.00    0.00    0.00     0.00    0.00    0.00    0.00
  106    9.19    0.87    0.02    0.46    0.04    0.00  209.60    3.15    5.68    1.35    0.05    0.00    0.00    0.01    0.00     0.06    0.00    0.01    0.00
  107    0.00    0.00    0.02    0.46    0.02    0.00  207.63    1.94    5.10    0.47    0.00    0.00    0.00    0.00    0.00     0.00    0.00    0.00    0.00
  108    0.00    0.00    0.02    0.45    0.01    0.00  205.87    1.76    5.58    0.46    0.00    0.00    0.00    0.00    0.00     0.00    0.00    0.00    0.00
  109    0.00    0.00    0.01    0.44    0.00    0.00  204.09    1.77    6.03    0.46    0.00    0.00    0.00    0.00    0.58     0.00    0.00    0.00    0.00
  110    0.00    0.00    0.01    0.43    0.00    0.00  202.06    2.03    7.00    0.45    0.00    0.00    0.00    0.00    1.07     0.00    0.00    0.00    0.00
  111    0.00    0.00    0.01    0.42    0.00    0.00  200.29    1.78    5.85    0.44    0.00    0.00    0.00    0.00    1.49     0.00    0.00    0.00    0.00
  112    0.00    0.00    0.01    0.42    0.00    0.00  198.60    1.68    6.14    0.43    0.00    0.00    0.00    0.00    1.85     0.00    0.00    0.00    0.00
  113    0.00    0.00    0.01    0.41    0.00    0.00  196.88    1.72    6.88    0.42    0.00    0.00    0.00    0.00    2.28     0.00    0.00    0.00    0.00
  114    0.00    0.00    0.01    0.40    0.00    0.00  195.13    1.76    6.70    0.41    0.00    0.00    0.00    0.00    2.56     0.00    0.00    0.00    0.00
  115    0.00    0.00    0.01    0.39    0.00    0.00  193.46    1.67    5.75    0.40    0.00    0.00    0.00    0.00    2.84     0.00    0.00    0.00    0.00
  116    0.00    0.00    0.01    0.38    0.00    0.00  192.03    1.43    5.80    0.40    0.00    0.00    0.00    0.00    0.64     0.00    0.00    0.00    0.00
  117    6.99    0.20    0.01    0.38    0.00    0.00  197.14    1.64    3.64    0.59    0.01    0.22    0.00    0.00    0.41     0.01    0.00    0.00    0.00
  118    0.00    0.00    0.01    0.37    0.00    0.00  195.20    1.95    5.37    0.38    0.00    0.00    0.00    0.00    3.74     0.00    0.00    0.00    0.00
  119    0.00    0.00    0.01    0.36    0.00    0.00  193.52    1.68    4.82    0.37    0.00    0.00    0.00    0.00    0.10     0.00    0.00    0.00    0.00
  120    0.00    0.00    0.01    0.35    0.00    0.00  191.87    1.65    4.86    0.36    0.00    0.00    0.00    0.00    4.11     0.00    0.00    0.00    0.00
  121    1.71    0.02    0.01    0.35    0.00    0.00  191.43    2.13    4.42    0.38    0.00    0.04    0.00    0.00    2.96     0.00    0.00    0.00    0.00
    4   36.05    1.92    0.45   13.72    0.37    0.00  191.43   49.76  152.71   16.10    0.09    0.27    0.01    0.03   24.61     0.11    0.00    0.01    0.00
  122    0.00    0.00    0.01    0.34    0.00    0.00  189.55    1.87    4.72    0.35    0.00    0.00    0.00    0.00    3.36     0.00    0.00    0.00    0.00
  123    0.00    0.00    0.01    0.33    0.00    0.00  187.92    1.63    5.28    0.34    0.00    0.00    0.00    0.00    5.17     0.00    0.00    0.00    0.00
  124    0.35    0.00    0.01    0.32    0.00    0.00  186.85    1.42    4.14    0.33    0.00    0.00    0.00    0.00    3.60     0.00    0.00    0.00    0.00
  125    0.00    0.00    0.01    0.32    0.00    0.00  185.11    1.74    4.75    0.32    0.00    0.00    0.00    0.00    0.07     0.00    0.00    0.00    0.00
  126    0.51    0.00    0.01    0.31    0.00    0.00  183.86    1.76    4.32    0.32    0.00    0.00    0.00    0.00    3.46     0.00    0.00    0.00    0.00
  127    7.33    0.22    0.01    0.30    0.00    0.00  188.19    2.73    4.66    0.53    0.00    0.03    0.00    0.00    1.07     0.00    0.00    0.00    0.00
  128    0.00    0.00    0.01    0.29    0.00    0.00  184.95    3.24    6.58    0.30    0.00    0.00    0.00    0.00    1.95     0.00    0.00    0.00    0.00
  129    0.00    0.00    0.01    0.29    0.00    0.00  182.20    2.75    6.87    0.30    0.00    0.00    0.00    0.00    2.45     0.00    0.00    0.00    0.00
  130    0.00    0.00    0.01    0.28    0.00    0.00  179.35    2.85    5.97    0.29    0.00    0.00    0.00    0.00    2.68     0.00    0.00    0.00    0.00
  131    0.00    0.00    0.01    0.27    0.00    0.00  176.64    2.71    6.12    0.28    0.00    0.00    0.00    0.00    2.89     0.00    0.00    0.00    0.00
  132    0.00    0.00    0.01    0.27    0.00    0.00  173.84    2.80    6.78    0.28    0.00    0.00    0.00    0.00    2.77     0.00    0.00    0.00    0.00
  133   10.21    1.00    0.01    0.26    0.00    0.00  180.07    2.94    5.01    1.28    0.00    1.17    0.00    0.00    2.40     0.00    0.00    0.00    0.00
  134    0.00    0.00    0.01    0.25    0.00    0.00  177.09    2.99    6.10    0.27    0.00    0.00    0.00    0.00    9.39     0.00    0.00    0.00    0.00
  135    0.00    0.00    0.01    0.25    0.00    0.00  173.96    3.12    6.23    0.26    0.00    0.00    0.00    0.00   10.00     0.00    0.00    0.00    0.00
  136    0.95    0.00    0.01    0.24    0.00    0.00  171.63    3.28    5.61    0.26    0.00    0.00    0.00    0.00    9.92     0.00    0.00    0.00    0.00
  137    6.13    0.49    0.01    0.24    0.00    0.00  173.89    3.35    4.98    0.73    0.00    0.08    0.00    0.00    8.25     0.00    0.00    0.00    0.00
  138    0.18    0.00    0.01    0.23    0.00    0.00  171.24    2.84    4.50    0.24    0.00    0.00    0.00    0.00    7.41     0.00    0.00    0.00    0.00
  139    0.99    0.00    0.01    0.22    0.00    0.00  168.61    3.61    5.09    0.24    0.00    0.00    0.00    0.00    9.86     0.00    0.00    0.00    0.00
  140    8.31    0.22    0.01    0.22    0.00    0.00  172.75    3.91    4.62    0.45    0.00    0.00    0.00    0.00    7.30     0.00    0.00    0.00    0.00
  141    2.47    0.03    0.01    0.21    0.00    0.00  173.40    1.77    1.89    0.26    0.00    0.00    0.00    0.00    2.84     0.00    0.00    0.00    0.00
  142    0.00    0.00    0.01    0.21    0.00    0.00  168.06    5.34    6.37    0.22    0.00    0.00    0.00    0.00    9.20     0.00    0.00    0.00    0.00
  143    0.00    0.00    0.01    0.20    0.00    0.00  163.16    4.90    6.79    0.21    0.00    0.00    0.00    0.00    3.46     0.00    0.00    0.00    0.00
  144    2.76    0.12    0.01    0.20    0.00    0.00  162.57    3.22    4.46    0.33    0.00    0.00    0.00    0.00    0.71     0.00    0.00    0.00    0.00
  145    0.18    0.00    0.01    0.19    0.00    0.00  158.56    4.19    5.87    0.20    0.00    0.00    0.00    0.00    0.38     0.00    0.00    0.00    0.00
  146    0.00    0.00    0.01    0.19    0.00    0.00  153.12    5.44    7.29    0.20    0.00    0.00    0.00    0.00    0.11     0.00    0.00    0.00    0.00
  147    0.00    0.00    0.01    0.18    0.00    0.00  147.87    5.25    7.90    0.19    0.00    0.00    0.00    0.00    0.55     0.00    0.00    0.00    0.00
  148    0.60    0.00    0.01    0.18    0.00    0.00  144.71    3.76    5.59    0.18    0.00    0.00    0.00    0.00    0.19     0.00    0.00    0.00    0.00
  149    0.00    0.00    0.01    0.17    0.00    0.00  139.85    4.86    7.46    0.18    0.00    0.00    0.00    0.00    0.07     0.00    0.00    0.00    0.00
  150    0.00    0.00    0.01    0.17    0.00    0.00  135.22    4.63    6.32    0.18    0.00    0.00    0.00    0.00    0.07     0.00    0.00    0.00    0.00
  151    5.52    0.41    0.01    0.16    0.00    0.00  137.37    2.93    3.78    0.59    0.00    0.00    0.00    0.00    0.05     0.00    0.00    0.00    0.00
  152    9.15    0.79    0.01    0.16    0.00    0.00  142.68    3.01    3.46    0.96    0.00    0.00    0.00    0.00    0.08     0.00    0.00    0.00    0.00
    5   55.65    3.29    0.31    7.44    0.00    0.00  142.68  100.86  169.51   11.04    0.00    1.28    0.01    0.00  111.70     0.01    0.00    0.00    0.00
  153    5.73    0.15    0.01    0.15    0.00    0.00  141.99    6.23    7.63    0.32    0.00    0.00    0.00    0.00    0.11     0.00    0.00    0.00    0.00
  154    3.88    0.09    0.01    0.15    0.00    0.00  140.14    5.62    6.67    0.25    0.00    0.00    0.00    0.00    0.13     0.00    0.00    0.00    0.00
  155    1.53    0.01    0.01    0.15    0.00    0.00  135.77    5.88    7.20    0.17    0.00    0.00    0.00    0.00    0.11     0.00    0.00    0.00    0.00
  156   23.64    2.36    0.02    0.14    0.00    0.00  153.09    3.83    3.97    2.52    0.00    0.00    0.00    0.00    0.09     0.00    0.00    0.00    0.00
  157    7.11    0.20    0.02    0.14    0.00    0.00  156.58    3.36    3.53    0.36    0.00    0.00    0.00    0.00    0.25     0.00    0.00    0.00    0.00
  158    2.41    0.09    0.02    0.13    0.00    0.00  155.33    3.56    4.02    0.24    0.00    0.00    0.00    0.00    0.11     0.00    0.00    0.00    0.00
  159    2.26    0.08    0.02    0.13    0.00    0.00  153.25    4.26    4.87    0.23    0.00    0.00    0.00    0.00    0.05     0.00    0.00    0.00    0.00
  160    9.64    0.93    0.02    0.13    0.00    0.00  157.98    3.90    4.73    1.08    0.00    0.00    0.00    0.00    0.05     0.00    0.00    0.00    0.00
  161    0.00    0.00    0.02    0.12    0.00    0.00  152.25    5.74    6.72    0.14    0.00    0.00    0.00    0.00    0.12     0.00    0.00    0.00    0.00
  162    0.00    0.00    0.02    0.12    0.00    0.00  146.39    5.86    7.61    0.14    0.00    0.00    0.00    0.00    0.05     0.00    0.00    0.00    0.00
  163    3.57    0.08    0.02    0.12    0.00    0.00  143.93    5.94    6.53    0.21    0.00    0.00    0.00    0.00    0.05     0.00    0.00    0.00    0.00
  164   33.32    4.77    0.04    0.11    0.22    0.00  166.74    5.27    6.15    4.93    0.01    0.01    0.00    0.04    0.09     0.01    0.00    0.00    0.00
  165    0.00    0.00    0.03    0.11    0.12    0.00  161.74    4.88    6.01    0.15    0.00    0.00    0.00    0.02    0.32     0.00    0.00    0.00    0.00
  166    0.00    0.00    0.03    0.11    0.09    0.00  156.85    4.80    6.20    0.13    0.00    0.00    0.00    0.02    0.05     0.00    0.00    0.00    0.00
  167    3.18    0.16    0.02    0.11    0.03    0.00  156.15    3.68    4.81    0.29    0.00    0.00    0.00    0.00    0.05     0.00    0.00    0.00    0.00
  168   15.69    0.83    0.03    0.10    0.10    0.00  167.25    3.58    3.60    0.96    0.00    0.00    0.00    0.02    0.05     0.00    0.00    0.00    0.00
  169   26.47    3.12    0.05    0.10    0.65    0.00  185.51    4.19    4.19    3.27    0.00    0.01    0.00    0.10    0.18     0.00    0.00    0.00    0.00
  170    0.00    0.00    0.04    0.10    0.37    0.00  177.59    7.55    8.23    0.14    0.00    0.00    0.00    0.05    0.27     0.00    0.00    0.00    0.00
  171    3.45    0.19    0.03    0.10    0.17    0.00  174.57    6.09    6.80    0.32    0.00    0.00    0.00    0.02    0.03     0.00    0.00    0.00    0.00
  172    5.87    0.46    0.03    0.10    0.14    0.00  174.38    5.44    6.27    0.59    0.00    0.00    0.00    0.02    0.06     0.00    0.00    0.00    0.00
  173    0.00    0.00    0.03    0.10    0.05    0.00  168.83    5.49    6.61    0.13    0.00    0.00    0.00    0.01    0.08     0.00    0.00    0.00    0.00
  174    0.00    0.00    0.03    0.10    0.00    0.00  163.26    5.57    6.84    0.13    0.00    0.00    0.00    0.00    0.03     0.00    0.00    0.00    0.00
  175    5.90    0.16    0.03    0.10    0.00    0.00  163.90    5.07    5.54    0.28    0.00    0.00    0.00    0.00    0.03     0.00    0.00    0.00    0.00
  176   45.46    7.57    0.06    0.10    0.73    0.00  196.53    4.21    4.21    7.72    0.01    0.01    0.00    0.08    0.09     0.01    0.00    0.00    0.00
  177   28.57    4.78    0.07    0.10    0.99    0.00  214.62    4.47    4.48    4.96    0.00    0.01    0.00    0.09    0.43     0.01    0.00    0.00    0.00
  178    7.13    0.18    0.06    0.10    0.71    0.00  216.83    3.95    3.95    0.34    0.00    0.00    0.00    0.04    0.28     0.00    0.00    0.00    0.00
  179    1.34    0.01    0.05    0.11    0.38    0.00  212.30    5.46    5.69    0.17    0.00    0.00    0.00    0.02    0.10     0.00    0.00    0.00    0.00
  180    7.63    0.22    0.05    0.11    0.16    0.00  214.80    4.66    4.81    0.38    0.00    0.00    0.00    0.01    0.04     0.00    0.00    0.00    0.00
  181    1.44    0.02    0.04    0.11    0.05    0.00  210.37    5.78    6.20    0.18    0.00    0.00    0.00    0.00    0.11     0.00    0.00    0.00    0.00
  182    4.85    0.12    0.04    0.11    0.00    0.00  212.64    2.44    2.45    0.27    0.00    0.00    0.00    0.00    0.04     0.00    0.00    0.00    0.00
    6  250.06   26.58    0.95    3.47    4.95    0.00  212.64  146.75  166.53   31.00    0.02    0.05    0.01    0.53    3.45     0.06    0.00    0.01    0.00
  183    4.83    0.09    0.04    0.11    0.00    0.00  214.34    3.00    3.03    0.25    0.00    0.00    0.00    0.00    0.07     0.00    0.00    0.00    0.00
  184    1.08    0.01    0.04    0.11    0.00    0.00  209.69    5.71    5.88    0.16    0.00    0.00    0.00    0.00    0.08     0.00    0.00    0.00    0.00
  185    0.18    0.00    0.04    0.12    0.00    0.00  205.56    4.32    4.60    0.15    0.00    0.00    0.00    0.00    0.04     0.00    0.00    0.00    0.00
  186    0.00    0.00    0.04    0.12    0.00    0.00  199.63    5.92    6.90    0.15    0.00    0.00    0.00    0.00    0.03     0.00    0.00    0.00    0.00
  187    4.20    0.07    0.03    0.12    0.00    0.00  199.66    4.09    4.16    0.22    0.00    0.00    0.00    0.00    0.03     0.00    0.00    0.00    0.00
  188    1.71    0.04    0.03    0.12    0.00    0.00  195.35    5.97    6.53    0.19    0.00    0.00    0.00    0.00    0.07     0.00    0.00    0.00    0.00
  189    0.00    0.00    0.03    0.12    0.00    0.00  188.09    7.25    8.56    0.15    0.00    0.00    0.00    0.00    0.04     0.00    0.00    0.00    0.00
  190    0.18    0.00    0.03    0.12    0.00    0.00  182.95    5.32    5.89    0.15    0.00    0.00    0.00    0.00    0.03     0.00    0.00    0.00    0.00
  191   10.70    0.35    0.03    0.12    0.00    0.00  187.09    6.13    6.37    0.50    0.00    0.00    0.00    0.00    0.47     0.00    0.00    0.00    0.00
  192    3.08    0.06    0.03    0.12    0.00    0.00  184.44    5.65    5.72    0.21    0.00    0.00    0.00    0.00    0.50     0.00    0.00    0.00    0.00
  193    2.56    0.04    0.03    0.12    0.00    0.00  180.89    6.05    6.39    0.19    0.00    0.00    0.00    0.00    0.62     0.00    0.00    0.00    0.00
  194    2.84    0.05    0.03    0.12    0.00    0.00  178.52    5.13    5.71    0.20    0.00    0.00    0.00    0.00    0.46     0.00    0.00    0.00    0.00
  195    0.00    0.00    0.03    0.11    0.00    0.00  171.71    6.81    7.68    0.15    0.00    0.00    0.00    0.00    0.19     0.00    0.00    0.00    0.00
  196    0.00    0.00    0.03    0.11    0.00    0.00  165.05    6.67    8.24    0.14    0.00    0.00    0.00    0.00    0.03     0.00    0.00    0.00    0.00
  197    3.41    0.07    0.03    0.11    0.00    0.00  161.14    7.23    8.67    0.21    0.00    0.00    0.00    0.00    0.04     0.00    0.00    0.00    0.00
  198    0.58    0.00    0.03    0.11    0.00    0.00  155.37    6.35    7.31    0.14    0.00    0.00    0.00    0.00    0.07     0.00    0.00    0.00    0.00
  199    1.85    0.02    0.03    0.11    0.00    0.00  151.97    5.22    5.69    0.16    0.00    0.00    0.00    0.00    0.04     0.00    0.00    0.00    0.00
  200   21.96    1.55    0.04    0.11    0.00    0.00  167.64    4.58    4.73    1.69    0.00    0.00    0.00    0.00    0.05     0.00    0.00    0.00    0.00
  201    0.00    0.00    0.03    0.11    0.00    0.00  161.31    6.33    7.15    0.14    0.00    0.00    0.00    0.00    0.23     0.00    0.00    0.00    0.00
  202   14.73    1.60    0.04    0.11    0.00    0.00  168.96    5.40    5.86    1.74    0.00    0.00    0.00    0.00    0.04     0.00    0.00    0.00    0.00
  203    2.55    0.04    0.03    0.10    0.00    0.00  165.82    5.63    5.68    0.18    0.00    0.00    0.00    0.00    0.16     0.00    0.00    0.00    0.00
  204   22.13    1.67    0.04    0.10    0.92    0.00  181.56    3.60    3.61    1.82    0.00    0.00    0.00    0.00    0.06     0.00    0.00    0.00    0.00
  205    0.00    0.00    0.04    0.11    0.44    0.00  173.37    7.75    8.17    0.14    0.00    0.00    0.00    0.00    0.23     0.00    0.00    0.00    0.00
  206    0.00    0.00    0.04    0.11    0.09    0.00  166.53    6.76    8.23    0.14    0.00    0.00    0.00    0.00    0.03     0.00    0.00    0.00    0.00
  207    0.00    0.00    0.03    0.11    0.00    0.00  160.76    5.76    7.84    0.14    0.00    0.00    0.00    0.00    0.04     0.00    0.00    0.00    0.00
  208   28.21    5.04    0.04    0.11    3.21    0.00  175.52    4.95    5.68    5.19    0.00    0.01    0.00    0.00    0.04     0.01    0.00    0.00    0.00
  209    4.45    0.29    0.04    0.12    1.88    0.00  173.36    4.40    5.07    0.46    0.00    0.00    0.00    0.00    0.30     0.00    0.00    0.00    0.00
  210    3.31    0.17    0.04    0.13    0.98    0.00  171.10    4.39    4.96    0.34    0.00    0.00    0.00    0.00    0.07     0.00    0.00    0.00    0.00
  211    2.65    0.02    0.04    0.13    0.42    0.00  170.32    2.97    3.24    0.20    0.00    0.00    0.00    0.00    0.06     0.00    0.00    0.00    0.00
  212   11.20    0.53    0.04    0.14    0.74    0.00  176.61    3.57    3.77    0.71    0.00    0.00    0.00    0.00    0.05     0.00    0.00    0.00    0.00
  213   21.59    2.33    0.06    0.15    0.44    0.00  190.91    4.36    4.37    2.54    0.00    0.00    0.00    0.00    0.13     0.01    0.00    0.00    0.00
    7  169.97   14.06    1.11    3.58    9.11    0.00  190.91  167.27  185.68   18.74    0.01    0.03    0.01    0.00    4.30     0.03    0.00    0.01    0.00
  214    0.90    0.00    0.05    0.16    0.13    0.00  186.22    5.44    5.61    0.21    0.00    0.00    0.00    0.00    0.22     0.00    0.00    0.00    0.00
  215    6.01    0.37    0.05    0.16    0.00    0.00  187.35    4.48    4.54    0.58    0.00    0.00    0.00    0.00    0.05     0.00    0.00    0.00    0.00
  216    2.92    0.05    0.04    0.17    0.00    0.00  186.04    4.16    4.24    0.26    0.00    0.00    0.00    0.00    0.08     0.00    0.00    0.00    0.00
  217    4.39    0.29    0.04    0.17    0.00    0.00  185.08    5.04    5.30    0.50    0.00    0.00    0.00    0.00    0.05     0.00    0.00    0.00    0.00
  218    0.00    0.00    0.04    0.18    0.00    0.00  178.93    6.16    6.92    0.22    0.00    0.00    0.00    0.00    0.07     0.00    0.00    0.00    0.00
  219    2.94    0.03    0.04    0.18    0.00    0.00  177.40    4.43    4.74    0.25    0.00    0.00    0.00    0.00    0.04     0.00    0.00    0.00    0.00
  220   16.00    1.56    0.05    0.18    0.00    0.00  187.26    4.46    4.56    1.79    0.00    0.00    0.00    0.00    0.06     0.00    0.00    0.00    0.00
  221    0.71    0.00    0.04    0.19    0.00    0.00  183.61    4.36    4.40    0.23    0.00    0.00    0.00    0.00    0.17     0.00    0.00    0.00    0.00
  222    0.00    0.00    0.04    0.19    0.00    0.00  178.38    5.23    5.49    0.23    0.00    0.00    0.00    0.00    0.04     0.00    0.00    0.00    0.00
  223    0.00    0.00    0.04    0.19    0.00    0.00  172.64    5.74    6.80    0.23    0.00    0.00    0.00    0.00    0.04     0.00    0.00    0.00    0.00
  224    0.00    0.00    0.03    0.19    0.00    0.00  167.37    5.27    6.64    0.23    0.00    0.00    0.00    0.00    0.04     0.00    0.00    0.00    0.00
  225   14.06    1.51    0.04    0.19    0.00    0.00  176.99    2.86    3.60    1.74    0.00    0.00    0.00    0.00    0.04     0.00    0.00    0.00    0.00
  226   11.92    0.82    0.04    0.19    0.00    0.00  184.54    3.46    3.55    1.06    0.00    0.00    0.00    0.00    0.15     0.00    0.00    0.00    0.00
  227   17.06    0.99    0.05    0.19    0.07    0.00  198.33    2.08    2.08    1.23    0.00    0.00    0.00    0.00    0.14     0.00    0.00    0.00    0.00
  228    0.00    0.00    0.04    0.19    0.04    0.00  194.02    4.28    4.72    0.24    0.00    0.00    0.00    0.00    0.18     0.00    0.00    0.00    0.00
  229    0.00    0.00    0.04    0.19    0.01    0.00  188.94    5.07    5.38    0.23    0.00    0.00    0.00    0.00    0.03     0.00    0.00    0.00    0.00
  230    0.00    0.00    0.04    0.19    0.00    0.00  184.09    4.84    5.46    0.23    0.00    0.00    0.00    0.00    0.04     0.00    0.00    0.00    0.00
  231    0.00    0.00    0.03    0.19    0.00    0.00  179.13    4.96    5.67    0.23    0.00    0.00    0.00    0.00    0.04     0.00    0.00    0.00    0.00
  232    0.00    0.00    0.03    0.19    0.00    0.00  173.86    5.27    5.93    0.22    0.00    0.00    0.00    0.00    0.04     0.00    0.00    0.00    0.00
  233   29.05    3.52    0.05    0.19    0.35    0.00  194.18    4.67    4.74    3.76    0.01    0.01    0.00    0.02    0.03     0.01    0.00    0.00    0.00
  234    1.48    0.01    0.04    0.19    0.18    0.00  190.86    4.61    4.84    0.24    0.00    0.00    0.00    0.01    0.04     0.00    0.00    0.00    0.00
  235    0.00    0.00    0.04    0.19    0.07    0.00  185.69    5.10    6.58    0.23    0.00    0.00    0.00    0.00    0.02     0.00    0.00    0.00    0.00
  236    4.02    0.25    0.04    0.19    0.01    0.00  186.32    3.12    3.59    0.47    0.00    0.00    0.00    0.00    0.23     0.00    0.00    0.00    0.00
  237    6.44    0.18    0.04    0.19    0.00    0.00  188.28    4.26    4.46    0.40    0.00    0.00    0.00    0.00    0.12     0.00    0.00    0.00    0.00
  238    0.00    0.00    0.03    0.19    0.00    0.00  183.37    4.91    5.57    0.22    0.00    0.00    0.00    0.00    0.35     0.00    0.00    0.00    0.00
  239    0.06    0.00    0.03    0.18    0.00    0.00  179.49    3.94    5.22    0.22    0.00    0.00    0.00    0.00    0.35     0.00    0.00    0.00    0.00
  240    0.10    0.00    0.03    0.18    0.00    0.00  175.38    4.21    5.09    0.21    0.00    0.00    0.00    0.00    0.37     0.00    0.00    0.00    0.00
  241    0.00    0.00    0.03    0.18    0.00    0.00  170.56    4.82    5.71    0.21    0.00    0.00    0.00    0.00    0.41     0.00    0.00    0.00    0.00
  242    0.73    0.00    0.03    0.18    0.00    0.00  167.32    3.97    4.68    0.21    0.00    0.00    0.00    0.00    0.24     0.00    0.00    0.00    0.00
  243    0.90    0.00    0.03    0.18    0.00    0.00  164.39    3.82    5.55    0.21    0.00    0.00    0.00    0.00    0.30     0.00    0.00    0.00    0.00
  244    3.80    0.22    0.03    0.17    0.00    0.00  164.31    3.64    4.30    0.42    0.00    0.00    0.00    0.00    0.52     0.00    0.00    0.00    0.00
    8  123.49    9.81    1.19    5.70    0.86    0.00  164.31  138.65  155.97   16.70    0.01    0.02    0.00    0.04    4.47     0.02    0.00    0.00    0.00
  245    2.83    0.05    0.03    0.17    0.00    0.00  163.29    3.78    4.57    0.25    0.00    0.00    0.00    0.00    0.28     0.00    0.00    0.00    0.00
  246    3.23    0.06    0.03    0.17    0.00    0.00  162.79    3.65    4.36    0.26    0.00    0.00    0.00    0.00    0.32     0.00    0.00    0.00    0.00
  247    0.00    0.00    0.03    0.17    0.00    0.00  159.17    3.62    4.78    0.19    0.00    0.00    0.00    0.00    0.50     0.00    0.00    0.00    0.00
  248    0.00    0.00    0.02    0.16    0.00    0.00  155.81    3.36    4.83    0.19    0.00    0.00    0.00    0.00    0.47     0.00    0.00    0.00    0.00
  249    0.00    0.00    0.02    0.16    0.00    0.00  152.40    3.41    5.24    0.19    0.00    0.00    0.00    0.00    0.49     0.00    0.00    0.00    0.00
  250    0.00    0.00    0.02    0.16    0.00    0.00  149.86    2.54    4.64    0.18    0.00    0.00    0.00    0.00    0.50     0.00    0.00    0.00    0.00
  251    2.00    0.06    0.02    0.16    0.00    0.00  149.93    1.86    2.92    0.24    0.00    0.00    0.00    0.00    0.15     0.00    0.00    0.00    0.00
  252    1.74    0.04    0.02    0.15    0.00    0.00  149.52    2.10    3.72    0.22    0.00    0.00    0.00    0.00    0.01     0.00    0.00    0.00    0.00
  253    0.00    0.00    0.02    0.15    0.00    0.00  145.87    3.65    5.68    0.17    0.00    0.00    0.00    0.00    0.02     0.00    0.00    0.00    0.00
  254    0.00    0.00    0.02    0.15    0.00    0.00  142.76    3.11    4.25    0.17    0.00    0.00    0.00    0.00    0.02     0.00    0.00    0.00    0.00
  255    2.00    0.06    0.02    0.15    0.00    0.00  141.69    3.00    3.63    0.22    0.00    0.00    0.00    0.00    0.02     0.00    0.00    0.00    0.00
  256    0.04    0.00    0.02    0.14    0.00    0.00  139.23    2.51    3.00    0.16    0.00    0.00    0.00    0.00    0.02     0.00    0.00    0.00    0.00
  257    5.88    0.24    0.02    0.14    0.00    0.00  142.56    2.29    2.40    0.40    0.00    0.00    0.00    0.00    0.02     0.00    0.00    0.00    0.00
  258    4.49    0.12    0.02    0.14    0.00    0.00  145.12    1.78    2.13    0.28    0.00    0.00    0.00    0.00    0.03     0.00    0.00    0.00    0.00
  259    2.06    0.06    0.02    0.14    0.00    0.00  144.37    2.74    3.58    0.22    0.00    0.00    0.00    0.00    0.03     0.00    0.00    0.00    0.00
  260    2.32    0.08    0.02    0.13    0.00    0.00  145.28    1.31    3.38    0.24    0.00    0.00    0.00    0.00    0.02     0.00    0.00    0.00    0.00
  261    3.88    0.08    0.02    0.13    0.00    0.00  147.41    1.66    2.82    0.23    0.00    0.00    0.00    0.00    0.02     0.00    0.00    0.00    0.00
  262   13.61    1.45    0.03    0.13    0.00    0.00  155.68    3.81    6.75    1.60    0.00    0.00    0.00    0.00    0.03     0.01    0.00    0.00    0.00
  263    0.00    0.00    0.02    0.12    0.00    0.00  153.11    2.57    5.97    0.15    0.00    0.00    0.00    0.00    0.02     0.00    0.00    0.00    0.00
  264    0.00    0.00    0.02    0.12    0.00    0.00  151.32    1.79    4.84    0.14    0.00    0.00    0.00    0.00    0.02     0.00    0.00    0.00    0.00
  265    0.00    0.00    0.02    0.12    0.00    0.00  149.66    1.66    4.23    0.14    0.00    0.00    0.00    0.00    0.02     0.00    0.00    0.00    0.00
  266    0.00    0.00    0.02    0.12    0.00    0.00  147.92    1.74    3.71    0.14    0.00    0.00    0.00    0.00    0.02     0.00    0.00    0.00    0.00
  267    0.00    0.00    0.02    0.11    0.00    0.00  146.14    1.78    4.71    0.13    0.00    0.00    0.00    0.00    0.02     0.00    0.00    0.00    0.00
  268    2.03    0.03    0.02    0.11    0.00    0.00  146.48    1.66    3.95    0.16    0.00    0.00    0.00    0.00    0.02     0.00    0.00    0.00    0.00
  269    2.00    0.03    0.02    0.11    0.00    0.00  147.12    1.32    3.37    0.15    0.00    0.00    0.00    0.00    0.02     0.00    0.00    0.00    0.00
  270    0.00    0.00    0.02    0.11    0.00    0.00  145.53    1.58    4.18    0.12    0.00    0.00    0.00    0.00    0.02     0.00    0.00    0.00    0.00
  271    0.00    0.00    0.02    0.10    0.00    0.00  144.56    0.97    3.87    0.12    0.00    0.00    0.00    0.00    0.01     0.00    0.00    0.00    0.00
  272    0.00    0.00    0.02    0.10    0.00    0.00  143.45    1.11    4.49    0.12    0.00    0.00    0.00    0.00    0.01     0.00    0.00    0.00    0.00
  273    0.00    0.00    0.01    0.10    0.00    0.00  142.04    1.41    3.89    0.11    0.00    0.00    0.00    0.00    0.01     0.00    0.00    0.00    0.00
  274    0.00    0.00    0.01    0.10    0.00    0.00  140.61    1.44    3.55    0.11    0.00    0.00    0.00    0.00    0.00     0.00    0.00    0.00    0.00
    9   48.12    2.37    0.61    4.03    0.00    0.00  140.61   69.22  123.44    7.01    0.00    0.01    0.00    0.00    3.09     0.01    0.00    0.00    0.00
  275    0.00    0.00    0.01    0.09    0.00    0.00  139.96    0.64    2.83    0.11    0.00    0.00    0.00    0.00    0.00     0.00    0.00    0.00    0.00
  276    4.61    0.31    0.02    0.09    0.00    0.00  143.07    1.18    2.25    0.42    0.00    0.01    0.00    0.00    0.00     0.00    0.00    0.00    0.00
  277   10.19    0.32    0.02    0.09    0.00    0.00  151.64    1.23    2.40    0.43    0.00    0.00    0.00    0.00    0.00     0.00    0.00    0.00    0.00
  278   13.58    1.45    0.03    0.09    0.00    0.00  162.00    1.69    2.00    1.56    0.00    0.01    0.00    0.00    0.04     0.00    0.00    0.00    0.00
  279    0.00    0.00    0.02    0.09    0.00    0.00  160.26    1.73    2.79    0.11    0.00    0.00    0.00    0.00    0.00     0.00    0.00    0.00    0.00
  280    0.04    0.00    0.02    0.08    0.00    0.00  158.88    1.42    2.23    0.10    0.00    0.00    0.00    0.00    0.00     0.00    0.00    0.00    0.00
  281    2.28    0.03    0.02    0.08    0.00    0.00  160.07    1.04    1.71    0.13    0.00    0.00    0.00    0.00    0.00     0.00    0.00    0.00    0.00
  282    2.47    0.04    0.02    0.08    0.00    0.00  161.37    1.11    1.84    0.14    0.00    0.00    0.00    0.00    0.01     0.00    0.00    0.00    0.00
  283   10.88    0.35    0.02    0.08    0.00    0.00  170.77    1.00    1.76    0.45    0.00    0.00    0.00    0.00    0.01     0.00    0.00    0.00    0.00
  284    3.48    0.07    0.02    0.08    0.00    0.00  173.15    0.99    1.94    0.17    0.00    0.00    0.00    0.00    0.04     0.00    0.00    0.00    0.00
  285    3.19    0.04    0.02    0.07    0.00    0.00  175.49    0.78    0.91    0.14    0.00    0.00    0.00    0.00    0.01     0.00    0.00    0.00    0.00
  286    0.00    0.00    0.02    0.07    0.00    0.00  173.74    1.76    2.45    0.09    0.00    0.00    0.00    0.00    0.01     0.00    0.00    0.00    0.00
  287   11.19    0.38    0.03    0.07    0.00    0.00  183.09    1.35    1.61    0.48    0.00    0.01    0.00    0.00    0.00     0.00    0.00    0.00    0.00
  288    8.93    0.29    0.03    0.07    0.00    0.00  190.35    1.28    2.04    0.39    0.00    0.00    0.00    0.00    0.03     0.00    0.00    0.00    0.00
  289    0.04    0.00    0.03    0.07    0.00    0.00  188.79    1.60    2.96    0.09    0.00    0.00    0.00    0.00    0.03     0.00    0.00    0.00    0.00
  290    0.00    0.00    0.03    0.06    0.00    0.00  186.59    2.21    4.69    0.09    0.00    0.00    0.00    0.00    0.00     0.00    0.00    0.00    0.00
  291    0.00    0.00    0.02    0.06    0.00    0.00  184.80    1.78    4.30    0.09    0.00    0.00    0.00    0.00    0.00     0.00    0.00    0.00    0.00
  292    0.04    0.00    0.02    0.06    0.00    0.00  184.06    0.78    2.00    0.08    0.00    0.00    0.00    0.00    0.00     0.00    0.00    0.00    0.00
  293   10.73    0.58    0.03    0.06    1.02    0.00  191.89    1.19    2.74    0.67    0.00    0.00    0.00    0.00    0.00     0.00    0.00    0.00    0.00
  294    0.00    0.00    0.03    0.06    0.60    0.00  190.31    0.97    2.58    0.09    0.00    0.00    0.00    0.00    0.04     0.00    0.00    0.00    0.00
  295    0.00    0.00    0.03    0.06    0.33    0.00  189.18    0.80    2.30    0.09    0.00    0.00    0.00    0.00    0.00     0.00    0.00    0.00    0.00
  296    0.00    0.00    0.02    0.06    0.17    0.00  188.23    0.78    2.32    0.09    0.00    0.00    0.00    0.00    0.00     0.00    0.00    0.00    0.00
  297    0.00    0.00    0.02    0.07    0.07    0.00  187.34    0.81    2.34    0.09    0.00    0.00    0.00    0.00    0.00     0.00    0.00    0.00    0.00
  298    0.30    0.00    0.02    0.07    0.02    0.00  186.89    0.74    1.99    0.09    0.00    0.00    0.00    0.00    0.00     0.00    0.00    0.00    0.00
  299    1.08    0.01    0.02    0.07    0.00    0.00  186.64    1.32    2.13    0.10    0.00    0.00    0.00    0.00    0.00     0.00    0.00    0.00    0.00
  300    0.00    0.00    0.02    0.07    0.00    0.00  185.60    1.04    2.61    0.09    0.00    0.00    0.00    0.00    0.00     0.00    0.00    0.00    0.00
  301    0.00    0.00    0.02    0.07    0.00    0.00  184.80    0.80    2.06    0.09    0.00    0.00    0.00    0.00    0.00     0.00    0.00    0.00    0.00
  302    7.50    0.25    0.02    0.07    0.61    0.00  190.91    0.46    0.90    0.34    0.00    0.00    0.00    0.00    0.00     0.00    0.00    0.00    0.00
  303    5.72    0.20    0.02    0.07    1.60    0.00  193.98    0.76    1.74    0.30    0.00    0.00    0.00    0.00    0.03     0.00    0.00    0.00    0.00
  304    0.04    0.00    0.02    0.08    0.96    0.00  191.92    1.12    2.63    0.10    0.00    0.00    0.00    0.00    0.02     0.00    0.00    0.00    0.00
  305    0.00    0.00    0.02    0.08    0.54    0.00  189.89    1.49    3.50    0.11    0.00    0.00    0.00    0.00    0.00     0.00    0.00    0.00    0.00
   10   96.29    4.34    0.69    2.27    5.91    0.00  189.89   35.87   72.56    7.30    0.00    0.04    0.00    0.01    0.32     0.01    0.00    0.00    0.00
  306    0.00    0.00    0.02    0.09    0.25    0.00  188.51    1.12    2.73    0.11    0.00    0.00    0.00    0.00    0.00     0.00    0.00    0.00    0.00
  307    0.00    0.00    0.02    0.09    0.08    0.00  187.59    0.84    2.48    0.11    0.00    0.00    0.00    0.00    0.00     0.00    0.00    0.00    0.00
  308    0.00    0.00    0.02    0.09    0.02    0.00  186.66    0.90    2.72    0.12    0.00    0.00    0.00    0.00    0.00     0.00    0.00    0.00    0.00
  309    7.97    0.71    0.02    0.10    0.00    0.00  192.75    1.13    1.82    0.84    0.00    0.02    0.00    0.00    0.00     0.00    0.00    0.00    0.00
  310    0.00    0.00    0.02    0.10    0.00    0.00  190.64    2.11    4.39    0.12    0.00    0.00    0.00    0.00    0.00     0.00    0.00    0.00    0.00
  311    0.72    0.00    0.02    0.10    0.00    0.00  189.78    1.58    3.02    0.13    0.00    0.00    0.00    0.00    0.00     0.00    0.00    0.00    0.00
  312    0.74    0.00    0.02    0.11    0.00    0.00  189.24    1.27    2.51    0.13    0.00    0.00    0.00    0.00    0.00     0.00    0.00    0.00    0.00
  313    0.99    0.00    0.02    0.11    0.00    0.00  188.42    1.80    4.32    0.13    0.00    0.00    0.00    0.00    0.01     0.00    0.00    0.00    0.00
  314    4.77    0.12    0.02    0.11    0.08    0.00  191.78    1.17    2.54    0.25    0.00    0.00    0.00    0.00    0.00     0.00    0.00    0.00    0.00
  315    0.00    0.00    0.02    0.11    0.03    0.00  191.08    0.68    1.68    0.13    0.00    0.00    0.00    0.00    0.00     0.00    0.00    0.00    0.00
  316    0.00    0.00    0.02    0.11    0.00    0.00  190.53    0.55    1.39    0.13    0.00    0.00    0.00    0.00    0.00     0.00    0.00    0.00    0.00
  317    1.59    0.00    0.02    0.11    0.00    0.00  191.79    0.32    0.52    0.13    0.00    0.00    0.00    0.00    0.00     0.00    0.00    0.00    0.00
  318    0.00    0.00    0.02    0.11    0.00    0.00  190.29    1.49    2.90    0.13    0.00    0.00    0.00    0.00    0.00     0.00    0.00    0.00    0.00
  319    0.00    0.00    0.02    0.11    0.00    0.00  189.14    1.16    3.07    0.13    0.00    0.00    0.00    0.00    0.00     0.00    0.00    0.00    0.00
  320    0.00    0.00    0.02    0.11    0.00    0.00  188.53    0.61    1.50    0.13    0.00    0.00    0.00    0.00    0.00     0.00    0.00    0.00    0.00
  321    0.00    0.00    0.01    0.11    0.00    0.00  187.97    0.56    1.43    0.13    0.00    0.00    0.00    0.00    0.00     0.00    0.00    0.00    0.00
  322    0.00    0.00    0.01    0.11    0.00    0.00  187.21    0.76    2.12    0.13    0.00    0.00    0.00    0.00    0.00     0.00    0.00    0.00    0.00
  323    3.23    0.05    0.01    0.11    0.00    0.00  189.27    1.11    2.03    0.18    0.00    0.00    0.00    0.00    0.01     0.00    0.00    0.00    0.00
  324    0.00    0.00    0.01    0.11    0.00    0.00  188.28    0.98    2.30    0.13    0.00    0.00    0.00    0.00    0.00     0.00    0.00    0.00    0.00
  325    0.00    0.00    0.01    0.11    0.00    0.00  187.38    0.90    2.47    0.13    0.00    0.00    0.00    0.00    0.00     0.00    0.00    0.00    0.00
  326    0.00    0.00    0.01    0.11    0.00    0.00  186.61    0.77    2.24    0.13    0.00    0.00    0.00    0.00    0.00     0.00    0.00    0.00    0.00
  327    0.00    0.00    0.01    0.11    0.00    0.00  186.03    0.58    1.70    0.12    0.00    0.00    0.00    0.00    0.00     0.00    0.00    0.00    0.00
  328    9.40    0.47    0.02    0.11    1.25    0.00  193.21    0.40    1.20    0.60    0.00    0.00    0.00    0.01    0.00     0.00    0.00    0.00    0.00
  329    0.00    0.00    0.02    0.11    0.76    0.00  191.89    0.55    1.55    0.13    0.00    0.00    0.00    0.00    0.01     0.00    0.00    0.00    0.00
  330    8.03    0.72    0.02    0.12    0.44    0.00  196.62    2.10    3.09    0.86    0.00    0.02    0.00    0.00    0.00     0.00    0.00    0.00    0.00
  331    3.40    0.18    0.02    0.12    0.24    0.00  198.00    1.58    2.17    0.32    0.00    0.00    0.00    0.00    0.00     0.00    0.00    0.00    0.00
  332    0.00    0.00    0.02    0.12    0.11    0.00  197.15    0.74    1.42    0.14    0.00    0.00    0.00    0.00    0.00     0.00    0.00    0.00    0.00
  333    0.00    0.00    0.02    0.12    0.05    0.00  196.08    1.02    2.22    0.14    0.00    0.00    0.00    0.00    0.00     0.00    0.00    0.00    0.00
  334    0.00    0.00    0.02    0.12    0.02    0.00  195.28    0.78    1.69    0.14    0.00    0.00    0.00    0.00    0.00     0.00    0.00    0.00    0.00
  335    0.00    0.00    0.01    0.13    0.00    0.00  194.63    0.64    1.48    0.14    0.00    0.00    0.00    0.00    0.00     0.00    0.00    0.00    0.00
   11   40.83    2.26    0.52    3.33    3.34    0.00  194.63   30.21   66.67    6.12    0.01    0.05    0.00    0.01    0.05     0.01    0.00    0.00    0.00
  336    0.00    0.00    0.01    0.13    0.00    0.00  193.38    1.25    3.39    0.14    0.00    0.00    0.00    0.00    0.00     0.00    0.00    0.00    0.00
  337    0.48    0.00    0.01    0.13    0.00    0.00  192.92    0.94    2.06    0.14    0.00    0.00    0.00    0.00    0.00     0.00    0.00    0.00    0.00
  338    0.00    0.00    0.01    0.13    0.00    0.00  191.93    1.00    2.53    0.14    0.00    0.00    0.00    0.00    0.00     0.00    0.00    0.00    0.00
  339    0.00    0.00    0.01    0.13    0.00    0.00  191.35    0.58    1.47    0.14    0.00    0.00    0.00    0.00    0.00     0.00    0.00    0.00    0.00
  340    0.00    0.00    0.01    0.13    0.00    0.00  190.81    0.54    1.27    0.14    0.00    0.00    0.00    0.00    0.00     0.00    0.00    0.00    0.00
  341    2.37    0.04    0.01    0.13    0.00    0.00  192.51    0.62    1.32    0.18    0.00    0.00    0.00    0.00    0.00     0.00    0.00    0.00    0.00
  342    9.66    0.58    0.02    0.13    1.73    0.00  199.19    0.55    1.24    0.72    0.00    0.00    0.00    0.01    0.01     0.00    0.00    0.00    0.00
  343    5.36    0.19    0.02    0.14    2.71    0.00  199.87    1.68    3.63    0.35    0.00    0.00    0.00    0.03    0.01     0.00    0.00    0.00    0.00
  344    2.79    0.10    0.02    0.14    1.61    0.00  200.08    0.84    1.21    0.27    0.00    0.01    0.00    0.02    0.00     0.00    0.00    0.00    0.00
  345    1.73    0.04    0.02    0.15    0.94    0.00  200.33    0.48    0.75    0.21    0.00    0.00    0.00    0.01    0.00     0.00    0.00    0.00    0.00
  346    0.00    0.00    0.02    0.16    0.55    0.00  198.62    1.16    2.01    0.18    0.00    0.00    0.00    0.01    0.00     0.00    0.00    0.00    0.00
  347    0.69    0.00    0.02    0.17    0.30    0.00  197.63    1.36    2.51    0.19    0.00    0.00    0.00    0.00    0.00     0.00    0.00    0.00    0.00
  348    0.48    0.00    0.02    0.17    0.15    0.00  196.23    1.73    3.62    0.19    0.00    0.00    0.00    0.00    0.00     0.00    0.00    0.00    0.00
  349    0.96    0.00    0.02    0.18    0.07    0.00  195.86    1.24    2.71    0.20    0.00    0.00    0.00    0.00    0.00     0.00    0.00    0.00    0.00
  350    0.00    0.00    0.02    0.19    0.03    0.00  195.11    0.72    1.97    0.20    0.00    0.00    0.00    0.00    0.00     0.00    0.00    0.00    0.00
  351    0.00    0.00    0.02    0.19    0.01    0.00  194.58    0.52    1.38    0.21    0.00    0.00    0.00    0.00    0.00     0.00    0.00    0.00    0.00
  352    0.00    0.00    0.02    0.20    0.00    0.00  193.95    0.63    1.60    0.21    0.00    0.00    0.00    0.00    0.00     0.00    0.00    0.00    0.00
  353    2.20    0.03    0.01    0.20    0.10    0.00  195.55    0.46    1.12    0.25    0.00    0.00    0.00    0.00    0.00     0.00    0.00    0.00    0.00
  354    1.69    0.03    0.01    0.20    0.06    0.00  196.35    0.80    1.22    0.25    0.00    0.00    0.00    0.00    0.00     0.00    0.00    0.00    0.00
  355   12.03    0.00    0.01    0.21    0.03    0.00  195.58    0.73    2.17    0.22    0.00    0.00    0.00    0.00    0.00     0.00    0.00    0.00    0.00
  356    0.00    1.24    0.02    0.21    0.02    0.00  204.50    1.77    2.57    1.47    0.00    0.01    0.00    0.00    0.00     0.01    0.00    0.00    0.00
  357    0.00    0.00    0.02    0.21    0.00    0.00  203.57    0.93    2.02    0.23    0.00    0.00    0.00    0.00    0.00     0.00    0.00    0.00    0.00
  358    0.00    0.00    0.02    0.21    0.00    0.00  202.69    0.88    2.15    0.23    0.00    0.00    0.00    0.00    0.00     0.00    0.00    0.00    0.00
  359    6.09    0.04    0.02    0.21    0.12    0.00  204.40    0.70    1.48    0.27    0.00    0.00    0.00    0.00    0.00     0.00    0.00    0.00    0.00
  360    7.26    0.00    0.01    0.21    0.07    0.00  204.01    0.32    0.82    0.23    0.00    0.00    0.00    0.00    0.00     0.00    0.00    0.00    0.00
  361    5.02    1.34    0.02    0.22    2.90    0.00  213.83    1.56    2.00    1.58    0.00    0.01    0.00    0.06    0.00     0.01    0.00    0.00    0.00
  362    5.06    0.20    0.02    0.23    3.42    0.00  214.01    1.17    2.01    0.45    0.00    0.00    0.00    0.09    0.00     0.00    0.00    0.00    0.00
  363    0.00    0.00    0.02    0.24    2.06    0.00  211.32    0.61    1.20    0.26    0.00    0.00    0.00    0.05    0.00     0.00    0.00    0.00    0.00
  364    0.00    0.00    0.02    0.25    1.22    0.00  208.98    1.10    2.39    0.27    0.00    0.00    0.00    0.03    0.00     0.00    0.00    0.00    0.00
  365    0.00    0.00    0.02    0.26    0.70    0.00  207.44    0.83    1.85    0.28    0.00    0.00    0.00    0.02    0.07     0.00    0.00    0.00    0.00
  366    0.00    0.00    0.02    0.27    0.39    0.00  206.38    0.67    1.67    0.29    0.00    0.00    0.00    0.01    0.02     0.00    0.00    0.00    0.00
   12   63.87    3.84    0.54    5.72   19.21    0.00  206.38   28.38   59.34   10.10    0.01    0.03    0.00    0.35    0.10     0.02    0.00    0.00    0.00

 2004 1096.56   83.74    8.63  112.27   97.69    0.00  206.38  874.29 1378.89  204.64    0.37    1.88    0.08    3.18  152.10     0.66    0.02    0.10    0.00
1
    SWAT Dec 6 2013    VER 2012/Rev 613                                             

    General Input/Output section (file.cio):                                        
    2/7/2013 12:00:00 AM ARCGIS-SWAT interface AV                                   
                                                                                    
Annual Summary for Watershed in year    3 of simulation

UNIT                                    PERCO    TILE                           WATER     SED     NO3     NO3     NO3     NO3        N       P       P
TIME     PREC    SURQ    LATQ     GWQ    LATE       Q     SW       ET     PET   YIELD   YIELD    SURQ    LATQ    PERC    CROP  ORGANIC SOLUBLE ORGANIC TILENO3
         (mm)    (mm)    (mm)    (mm)    (mm)    (mm)    (mm)    (mm)    (mm)    (mm)    (mm)   ------------------(kg nutrient/ha)-------------------- (kg/ha)
    1    0.00    0.00    0.02    0.28    0.22    0.00  205.62    0.54    1.64    0.30    0.00    0.00    0.00    0.01    0.00     0.00    0.00    0.00    0.00
    2    0.00    0.00    0.02    0.29    0.12    0.00  204.96    0.54    1.55    0.31    0.00    0.00    0.00    0.00    0.00     0.00    0.00    0.00    0.00
    3    0.00    0.00    0.02    0.30    0.06    0.00  204.33    0.58    1.74    0.32    0.00    0.00    0.00    0.00    0.00     0.00    0.00    0.00    0.00
    4    0.00    0.00    0.02    0.31    0.02    0.00  203.54    0.76    2.40    0.32    0.00    0.00    0.00    0.00    0.00     0.00    0.00    0.00    0.00
    5    0.00    0.00    0.02    0.31    0.00    0.00  202.69    0.86    2.86    0.33    0.00    0.00    0.00    0.00    0.00     0.00    0.00    0.00    0.00
    6    0.00    0.00    0.02    0.32    0.00    0.00  201.94    0.75    2.66    0.33    0.00    0.00    0.00    0.00    0.00     0.00    0.00    0.00    0.00
    7    0.00    0.00    0.02    0.32    0.00    0.00  201.42    0.51    1.92    0.34    0.00    0.00    0.00    0.00    0.00     0.00    0.00    0.00    0.00
    8    0.03    0.00    0.02    0.32    0.00    0.00  201.05    0.40    1.51    0.34    0.00    0.00    0.00    0.00    0.00     0.00    0.00    0.00    0.00
    9    0.00    0.00    0.01    0.33    0.00    0.00  200.52    0.53    2.13    0.34    0.00    0.00    0.00    0.00    0.00     0.00    0.00    0.00    0.00
   10    0.00    0.00    0.01    0.33    0.00    0.00  200.10    0.42    1.75    0.34    0.00    0.00    0.00    0.00    0.00     0.00    0.00    0.00    0.00
   11    0.00    0.00    0.01    0.33    0.00    0.00  199.68    0.43    1.85    0.34    0.00    0.00    0.00    0.00    0.00     0.00    0.00    0.00    0.00
   12    0.00    0.00    0.01    0.33    0.00    0.00  199.29    0.39    1.75    0.34    0.00    0.00    0.00    0.00    0.00     0.00    0.00    0.00    0.00
   13    0.00    0.00    0.01    0.33    0.00    0.00  198.65    0.63    2.90    0.34    0.00    0.00    0.00    0.00    0.00     0.00    0.00    0.00    0.00
   14   24.69    2.29    0.03    0.33    2.15    0.00  216.16    2.54    3.05    2.64    0.02    0.03    0.00    0.06    0.00     0.04    0.00    0.01    0.00
   15   11.28    0.67    0.03    0.34    2.76    0.00  222.27    1.61    1.89    1.04    0.00    0.00    0.00    0.09    0.00     0.01    0.00    0.00    0.00
   16    0.00    0.00    0.03    0.35    1.68    0.00  218.97    1.61    2.89    0.38    0.00    0.00    0.00    0.06    0.00     0.00    0.00    0.00    0.00
   17    0.21    0.00    0.02    0.36    0.98    0.00  216.69    1.49    2.97    0.38    0.00    0.00    0.00    0.03    0.00     0.00    0.00    0.00    0.00
   18    0.00    0.00    0.02    0.36    0.56    0.00  215.34    0.79    1.84    0.39    0.00    0.00    0.00    0.02    0.00     0.00    0.00    0.00    0.00
   19    0.00    0.00    0.02    0.37    0.32    0.00  214.43    0.59    1.48    0.39    0.00    0.00    0.00    0.01    0.00     0.00    0.00    0.00    0.00
   20    1.44    0.00    0.02    0.38    0.18    0.00  215.04    0.65    0.90    0.40    0.00    0.00    0.00    0.01    0.00     0.00    0.00    0.00    0.00
   21    2.73    0.04    0.02    0.38    0.10    0.00  216.99    0.63    0.77    0.44    0.00    0.00    0.00    0.00    0.00     0.00    0.00    0.00    0.00
   22    0.00    0.00    0.02    0.39    0.06    0.00  216.38    0.56    0.87    0.41    0.00    0.00    0.00    0.00    0.00     0.00    0.00    0.00    0.00
   23    2.11    0.00    0.02    0.39    0.03    0.00  215.73    0.62    1.87    0.41    0.00    0.00    0.00    0.00    0.00     0.00    0.00    0.00    0.00
   24    0.00    0.03    0.02    0.39    0.01    0.00  215.99    1.80    2.24    0.44    0.00    0.00    0.00    0.00    0.00     0.00    0.00    0.00    0.00
   25    0.00    0.00    0.02    0.40    0.00    0.00  214.55    1.44    2.12    0.41    0.00    0.00    0.00    0.00    0.00     0.00    0.00    0.00    0.00
   26    0.00    0.00    0.02    0.40    0.00    0.00  213.27    1.28    2.50    0.41    0.00    0.00    0.00    0.00    0.00     0.00    0.00    0.00    0.00
   27    0.00    0.00    0.02    0.40    0.00    0.00  211.81    1.46    3.71    0.41    0.00    0.00    0.00    0.00    0.00     0.00    0.00    0.00    0.00
   28    0.00    0.00    0.02    0.40    0.00    0.00  210.86    0.95    2.81    0.41    0.00    0.00    0.00    0.00    0.00     0.00    0.00    0.00    0.00
   29    0.00    0.00    0.01    0.40    0.00    0.00  210.41    0.44    1.45    0.41    0.00    0.00    0.00    0.00    0.00     0.00    0.00    0.00    0.00
   30   13.26    0.84    0.02    0.40    0.78    0.00  221.44    0.51    0.59    1.25    0.01    0.01    0.00    0.02    0.00     0.01    0.00    0.00    0.00
   31    0.00    0.00    0.02    0.40    0.48    0.00  219.52    1.44    1.90    0.42    0.00    0.00    0.00    0.01    0.00     0.00    0.00    0.00    0.00
    1   55.74    3.86    0.59   10.93   10.50    0.00  219.52   27.74   62.48   15.37    0.03    0.04    0.01    0.33    0.00     0.06    0.00    0.01    0.00
   32    0.00    0.00    0.02    0.40    0.27    0.00  218.18    1.06    1.89    0.41    0.00    0.00    0.00    0.01    0.00     0.00    0.00    0.00    0.00
   33    0.00    0.00    0.02    0.40    0.15    0.00  217.11    0.92    1.84    0.41    0.00    0.00    0.00    0.00    0.00     0.00    0.00    0.00    0.00
   34    1.06    0.00    0.02    0.39    0.07    0.00  217.26    0.84    1.15    0.41    0.00    0.00    0.00    0.00    0.00     0.00    0.00    0.00    0.00
   35    8.06    0.40    0.02    0.39    0.86    0.00  221.99    1.99    2.28    0.81    0.00    0.00    0.00    0.03    0.00     0.01    0.00    0.00    0.00
   36    0.00    0.00    0.02    0.39    0.53    0.00  219.59    1.86    3.46    0.41    0.00    0.00    0.00    0.02    0.00     0.00    0.00    0.00    0.00
   37    0.00    0.00    0.02    0.39    0.28    0.00  217.71    1.60    3.56    0.41    0.00    0.00    0.00    0.01    0.00     0.00    0.00    0.00    0.00
   38    0.00    0.00    0.02    0.39    0.14    0.00  216.55    1.02    2.65    0.41    0.00    0.00    0.00    0.00    0.00     0.00    0.00    0.00    0.00
   39    0.00    0.00    0.02    0.39    0.06    0.00  215.58    0.91    2.60    0.41    0.00    0.00    0.00    0.00    0.00     0.00    0.00    0.00    0.00
   40    0.01    0.00    0.02    0.39    0.02    0.00  214.86    0.72    2.21    0.41    0.00    0.00    0.00    0.00    0.00     0.00    0.00    0.00    0.00
   41    0.39    0.00    0.01    0.39    0.00    0.00  213.95    1.30    3.52    0.40    0.00    0.00    0.00    0.00    0.00     0.00    0.00    0.00    0.00
   42    0.00    0.00    0.01    0.39    0.00    0.00  212.59    1.36    4.39    0.40    0.00    0.00    0.00    0.00    0.00     0.00    0.00    0.00    0.00
   43    0.00    0.00    0.01    0.38    0.00    0.00  211.72    0.87    3.21    0.40    0.00    0.00    0.00    0.00    0.00     0.00    0.00    0.00    0.00
   44    0.00    0.00    0.01    0.38    0.00    0.00  211.17    0.56    2.22    0.39    0.00    0.00    0.00    0.00    0.00     0.00    0.00    0.00    0.00
   45    1.13    0.00    0.01    0.38    0.00    0.00  211.70    0.60    1.31    0.39    0.00    0.00    0.00    0.00    0.00     0.00    0.00    0.00    0.00
   46    1.60    0.01    0.01    0.37    0.00    0.00  212.33    0.96    1.39    0.39    0.00    0.00    0.00    0.00    0.00     0.00    0.00    0.00    0.00
   47    0.00    0.00    0.01    0.37    0.00    0.00  211.04    1.29    3.12    0.38    0.00    0.00    0.00    0.00    0.00     0.00    0.00    0.00    0.00
   48    2.38    0.04    0.01    0.37    0.00    0.00  211.07    2.31    4.17    0.41    0.00    0.00    0.00    0.00    0.00     0.00    0.00    0.00    0.00
   49    0.00    0.00    0.01    0.36    0.00    0.00  209.88    1.19    4.03    0.37    0.00    0.00    0.00    0.00    0.00     0.00    0.00    0.00    0.00
   50    0.00    0.00    0.01    0.36    0.00    0.00  209.34    0.54    2.13    0.37    0.00    0.00    0.00    0.00    0.00     0.00    0.00    0.00    0.00
   51    0.00    0.00    0.01    0.35    0.00    0.00  208.72    0.62    2.73    0.36    0.00    0.00    0.00    0.00    0.00     0.00    0.00    0.00    0.00
   52    2.74    0.04    0.01    0.35    0.00    0.00  210.69    0.73    1.08    0.40    0.00    0.00    0.00    0.00    0.00     0.00    0.00    0.00    0.00
   53    1.37    0.00    0.01    0.34    0.00    0.00  210.82    1.23    1.79    0.35    0.00    0.00    0.00    0.00    0.00     0.00    0.00    0.00    0.00
   54    0.00    0.00    0.01    0.34    0.00    0.00  209.34    1.48    4.10    0.35    0.00    0.00    0.00    0.00    0.00     0.00    0.00    0.00    0.00
   55   11.27    0.63    0.01    0.33    0.06    0.00  218.33    1.53    1.79    0.98    0.01    0.00    0.00    0.00    0.00     0.02    0.00    0.00    0.00
   56    7.92    0.39    0.02    0.33    0.94    0.00  223.57    1.28    1.43    0.73    0.00    0.00    0.00    0.03    0.00     0.01    0.00    0.00    0.00
   57    0.00    0.00    0.02    0.32    0.58    0.00  221.60    1.38    2.18    0.34    0.00    0.00    0.00    0.02    0.00     0.00    0.00    0.00    0.00
   58    0.00    0.00    0.01    0.32    0.32    0.00  220.07    1.20    2.27    0.34    0.00    0.00    0.00    0.01    0.00     0.00    0.00    0.00    0.00
   59   18.77    1.58    0.03    0.32    2.74    0.00  233.51    0.80    0.90    1.93    0.03    0.01    0.00    0.15    0.00     0.04    0.00    0.01    0.00
    2   56.71    3.08    0.41   10.31    7.02    0.00  233.51   32.14   69.40   13.79    0.04    0.02    0.01    0.30    0.00     0.08    0.00    0.01    0.00
   60    1.74    0.01    0.03    0.33    1.91    0.00  230.70    2.60    2.93    0.36    0.00    0.00    0.00    0.10    0.00     0.00    0.00    0.00    0.00
   61    0.00    0.00    0.02    0.33    1.14    0.00  227.60    1.96    3.81    0.35    0.00    0.00    0.00    0.06    0.00     0.00    0.00    0.00    0.00
   62    0.00    0.00    0.02    0.33    0.64    0.00  225.28    1.68    3.97    0.35    0.00    0.00    0.00    0.04    0.00     0.00    0.00    0.00    0.00
   63    0.00    0.00    0.02    0.34    0.34    0.00  223.76    1.17    3.21    0.36    0.00    0.00    0.00    0.02    0.00     0.00    0.00    0.00    0.00
   64    0.00    0.00    0.02    0.34    0.17    0.00  222.00    1.58    4.80    0.36    0.00    0.00    0.00    0.01    0.00     0.00    0.00    0.00    0.00
   65    0.31    0.00    0.02    0.34    0.06    0.00  220.90    1.36    3.82    0.36    0.00    0.00    0.00    0.00    0.00     0.00    0.00    0.00    0.00
   66    0.00    0.00    0.02    0.35    0.01    0.00  219.46    1.43    4.96    0.36    0.00    0.00    0.00    0.00    0.00     0.00    0.00    0.00    0.00
   67   13.89    0.92    0.02    0.35    0.61    0.00  228.05    3.67    4.79    1.29    0.03    0.01    0.00    0.03    0.00     0.04    0.00    0.01    0.00
   68   14.56    1.01    0.03    0.35    2.18    0.00  236.40    2.86    3.28    1.40    0.00    0.00    0.00    0.14    0.00     0.04    0.00    0.00    0.00
   69    0.00    0.00    0.03    0.36    1.33    0.00  233.38    1.67    3.28    0.39    0.00    0.00    0.00    0.08    0.00     0.00    0.00    0.00    0.00
   70    0.00    0.00    0.03    0.36    0.76    0.00  230.87    1.75    4.07    0.39    0.00    0.00    0.00    0.05    0.00     0.00    0.00    0.00    0.00
   71    0.60    0.00    0.02    0.37    0.41    0.00  229.00    2.05    4.46    0.39    0.00    0.00    0.00    0.02    0.00     0.00    0.00    0.00    0.00
   72    0.00    0.00    0.02    0.38    0.20    0.00  227.43    1.37    3.79    0.40    0.00    0.00    0.00    0.01    0.00     0.00    0.00    0.00    0.00
   73    9.07    0.47    0.02    0.38    0.30    0.00  233.42    2.25    2.50    0.88    0.01    0.00    0.00    0.02    0.00     0.01    0.00    0.00    0.00
   74    0.00    0.00    0.02    0.38    0.18    0.00  231.59    1.65    3.11    0.41    0.00    0.00    0.00    0.01    0.00     0.00    0.00    0.00    0.00
   75    0.00    0.00    0.02    0.39    0.08    0.00  230.11    1.39    3.03    0.41    0.00    0.00    0.00    0.00    0.00     0.00    0.00    0.00    0.00
   76   29.65    3.85    0.04    0.39    3.91    0.00  250.81    0.90    0.99    4.28    0.07    0.01    0.00    0.30    0.00     0.11    0.00    0.02    0.00
   77    1.61    0.01    0.04    0.41    2.52    0.00  248.42    1.42    1.56    0.45    0.00    0.00    0.00    0.19    0.00     0.00    0.00    0.00    0.00
   78    0.00    0.00    0.03    0.42    1.50    0.00  244.94    1.97    3.10    0.45    0.00    0.00    0.00    0.11    0.00     0.00    0.00    0.00    0.00
   79    0.00    0.00    0.03    0.43    0.86    0.00  241.97    2.10    4.15    0.46    0.00    0.00    0.00    0.06    0.00     0.00    0.00    0.00    0.00
   80    0.00    0.00    0.03    0.44    0.47    0.00  239.78    1.71    4.16    0.47    0.00    0.00    0.00    0.03    0.00     0.00    0.00    0.00    0.00
   81    0.00    0.00    0.03    0.45    0.24    0.00  237.92    1.63    4.64    0.48    0.00    0.00    0.00    0.02    0.00     0.00    0.00    0.00    0.00
   82    7.29    0.29    0.03    0.46    0.23    0.00  242.79    1.86    2.10    0.78    0.00    0.00    0.00    0.01    0.00     0.01    0.00    0.00    0.00
   83    5.19    0.14    0.03    0.46    0.90    0.00  244.19    2.69    3.01    0.64    0.00    0.00    0.00    0.07    0.00     0.00    0.00    0.00    0.00
   84    0.00    0.00    0.03    0.47    0.55    0.00  241.57    2.06    4.02    0.50    0.00    0.00    0.00    0.04    0.00     0.00    0.00    0.00    0.00
   85    0.00    0.00    0.03    0.48    0.29    0.00  239.96    1.32    3.12    0.51    0.00    0.00    0.00    0.02    0.00     0.00    0.00    0.00    0.00
   86    0.00    0.00    0.03    0.48    0.14    0.00  238.96    0.87    2.33    0.51    0.00    0.00    0.00    0.01    0.00     0.00    0.00    0.00    0.00
   87    4.89    0.17    0.03    0.49    0.06    0.00  241.57    2.03    2.28    0.69    0.00    0.00    0.00    0.00    0.00     0.01    0.00    0.00    0.00
   88   10.55    0.49    0.03    0.50    1.76    0.00  245.61    4.15    5.54    1.01    0.01    0.00    0.00    0.14    0.00     0.02    0.00    0.00    0.00
   89    0.00    0.00    0.03    0.50    1.03    0.00  241.70    2.87    6.20    0.53    0.00    0.00    0.00    0.08    0.00     0.00    0.00    0.00    0.00
   90    0.00    0.00    0.03    0.51    0.55    0.00  239.77    1.37    3.72    0.54    0.00    0.00    0.00    0.04    0.00     0.00    0.00    0.00    0.00
    3   99.34    7.36    0.82   12.56   25.32    0.00  239.77   59.39  110.73   20.74    0.12    0.03    0.01    1.72    0.00     0.23    0.00    0.03    0.00
   91    2.91    0.05    0.03    0.51    0.29    0.00  240.41    1.93    2.37    0.59    0.00    0.00    0.00    0.02    0.00     0.00    0.00    0.00    0.00
   92    2.05    0.02    0.03    0.52    0.15    0.00  239.77    2.51    3.37    0.57    0.00    0.00    0.00    0.01    0.00     0.00    0.00    0.00    0.00
   93   10.83    0.73    0.03    0.52    0.47    0.00  244.09    5.23    7.74    1.29    0.02    0.00    0.00    0.03    0.00     0.03    0.00    0.00    0.00
   94    0.00    0.00    0.03    0.53    0.21    0.00  240.87    3.00    7.10    0.55    0.00    0.00    0.00    0.01    0.00     0.00    0.00    0.00    0.00
   95    0.00    0.00    0.03    0.53    0.09    0.00  238.92    1.86    5.62    0.55    0.00    0.00    0.00    0.01    0.00     0.00    0.00    0.00    0.00
   96    0.00    0.00    0.02    0.53    0.03    0.00  236.90    1.99    6.88    0.55    0.00    0.00    0.00    0.00    0.00     0.00    0.00    0.00    0.00
   97    0.00    0.00    0.02    0.53    0.01    0.00  235.31    1.59    6.20    0.55    0.00    0.00    0.00    0.00    0.00     0.00    0.00    0.00    0.00
   98    0.80    0.00    0.02    0.53    0.00    0.00  234.89    1.22    3.27    0.55    0.00    0.00    0.00    0.00    0.00     0.00    0.00    0.00    0.00
   99   13.64    0.86    0.03    0.53    0.21    0.00  242.90    4.48    6.40    1.41    0.04    0.00    0.00    0.01    0.37     0.05    0.00    0.01    0.00
  100    0.00    0.00    0.02    0.53    0.08    0.00  240.28    2.54    4.94    0.55    0.00    0.00    0.00    0.01    0.48     0.00    0.00    0.00    0.00
  101    0.00    0.00    0.02    0.53    0.01    0.00  238.10    2.18    5.08    0.55    0.00    0.00    0.00    0.00    0.94     0.00    0.00    0.00    0.00
[...]
  348    0.00    0.00    0.02    0.00    0.00    0.00  129.03    0.66    1.49    0.02    0.00    0.00    0.00    0.00    0.00     0.00    0.00    0.00    0.00
  349    1.03    0.00    0.02    0.00    0.00    0.00  128.85    0.18    0.47    0.02    0.00    0.00    0.00    0.00    0.00     0.00    0.00    0.00    0.00
  350   28.70    2.36    0.04    0.00    0.00    0.00  155.56    0.39    0.43    2.40    0.01    0.01    0.00    0.00    0.00     0.01    0.00    0.00    0.00
  351    0.00    0.00    0.04    0.00    0.00    0.00  154.51    1.06    1.32    0.04    0.00    0.00    0.00    0.00    0.00     0.00    0.00    0.00    0.00
  352    6.94    0.29    0.04    0.00    0.00    0.00  159.76    1.33    1.53    0.32    0.00    0.00    0.00    0.00    0.00     0.00    0.00    0.00    0.00
  353    0.90    0.00    0.03    0.00    0.00    0.00  159.47    1.19    1.46    0.03    0.00    0.00    0.00    0.00    0.00     0.00    0.00    0.00    0.00
  354    0.00    0.00    0.03    0.00    0.00    0.00  158.14    1.33    2.39    0.03    0.00    0.00    0.00    0.00    0.00     0.00    0.00    0.00    0.00
  355    0.00    0.00    0.03    0.00    0.00    0.00  157.20    0.94    1.98    0.03    0.00    0.00    0.00    0.00    0.00     0.00    0.00    0.00    0.00
  356    0.00    0.00    0.03    0.00    0.00    0.00  156.40    0.80    1.85    0.03    0.00    0.00    0.00    0.00    0.00     0.00    0.00    0.00    0.00
  357    0.00    0.00    0.03    0.00    0.00    0.00  155.72    0.69    1.67    0.03    0.00    0.00    0.00    0.00    0.00     0.00    0.00    0.00    0.00
  358    0.00    0.00    0.02    0.00    0.00    0.00  154.78    0.94    2.43    0.02    0.00    0.00    0.00    0.00    0.00     0.00    0.00    0.00    0.00
  359    1.68    0.01    0.02    0.00    0.00    0.00  155.73    0.72    1.28    0.03    0.00    0.00    0.00    0.00    0.00     0.00    0.00    0.00    0.00
  360    3.61    0.09    0.02    0.00    0.00    0.00  157.40    1.83    2.43    0.11    0.00    0.00    0.00    0.00    0.00     0.00    0.00    0.00    0.00
  361    0.00    0.00    0.02    0.00    0.00    0.00  156.67    0.73    1.58    0.02    0.00    0.00    0.00    0.00    0.00     0.00    0.00    0.00    0.00
  362    0.00    0.00    0.02    0.00    0.00    0.00  155.90    0.76    1.82    0.02    0.00    0.00    0.00    0.00    0.00     0.00    0.00    0.00    0.00
  363   13.52    0.79    0.03    0.00    0.00    0.00  167.17    1.35    1.67    0.82    0.00    0.01    0.00    0.00    0.01     0.01    0.00    0.00    0.00
  364    0.00    0.00    0.03    0.00    0.00    0.00  166.05    1.12    2.00    0.03    0.00    0.00    0.00    0.00    0.02     0.00    0.00    0.00    0.00
  365    0.00    0.00    0.02    0.00    0.00    0.00  165.10    0.96    1.94    0.02    0.00    0.00    0.00    0.00    0.02     0.00    0.00    0.00    0.00
   12   98.84    6.11    0.87    0.02    0.00    0.00  165.10   30.27   51.15    7.00    0.02    0.04    0.01    0.00    0.06     0.05    0.00    0.01    0.00

 2005  849.00   54.09    5.78   67.61   47.01    0.00  165.10  783.34 1461.57  127.48    0.39    2.58    0.10    2.67  189.82     0.73    0.02    0.11    0.00
1
    SWAT Dec 6 2013    VER 2012/Rev 613                                             

    General Input/Output section (file.cio):                                        
    2/7/2013 12:00:00 AM ARCGIS-SWAT interface AV                                   
                                                                                    
    FINAL VALUES

1
    SWAT Dec 6 2013    VER 2012/Rev 613                                             

    General Input/Output section (file.cio):                                        
    2/7/2013 12:00:00 AM ARCGIS-SWAT interface AV                                   
                                                                                    
                                            Average Plant Values (kg/ha)

  HRU       1 SUB   1 BERM  Yld = 17408.4 BIOM =  24975.4
  HRU       2 SUB   1 BERM  Yld = 17298.3 BIOM =  24815.6
  HRU       3 SUB   1 BERM  Yld = 18805.4 BIOM =  26990.3
  HRU       4 SUB   1 BERM  Yld = 18770.5 BIOM =  26940.1
  HRU       5 SUB   1 BERM  Yld = 19324.1 BIOM =  27737.5
  HRU       6 SUB   1 BERM  Yld = 19270.9 BIOM =  27660.8
  HRU       7 SUB   1 BERM  Yld = 15026.1 BIOM =  21524.6
  HRU       8 SUB   1 BERM  Yld = 15176.3 BIOM =  21742.2
  HRU       9 SUB   1 BERM  Yld = 15120.3 BIOM =  21661.3
  HRU      10 SUB   1 BERM  Yld = 15687.9 BIOM =  22478.2
  HRU      11 SUB   1 BERM  Yld = 15698.1 BIOM =  22492.9
  HRU      12 SUB   1 BERM  Yld = 15943.5 BIOM =  22845.5
  HRU      13 SUB   1 BERM  Yld = 15909.3 BIOM =  22795.9
  HRU      14 SUB   2 BERM  Yld = 19403.3 BIOM =  27850.6
  HRU      15 SUB   2 BERM  Yld = 19450.7 BIOM =  27918.9
  HRU      16 SUB   2 BERM  Yld = 15649.4 BIOM =  22408.0
  HRU      17 SUB   2 BERM  Yld = 15645.4 BIOM =  22402.0
  HRU      18 SUB   2 BERM  Yld = 15858.3 BIOM =  22708.5
  HRU      19 SUB   2 BERM  Yld = 15841.5 BIOM =  22683.8
  HRU      20 SUB   2 FRSD  Yld =  4245.9 BIOM =  19536.8
  HRU      21 SUB   2 FRSD  Yld =  4288.4 BIOM =  19684.2
  HRU      22 SUB   3 BERM  Yld = 19731.5 BIOM =  28297.5
  HRU      23 SUB   3 BERM  Yld = 19752.6 BIOM =  28327.7
  HRU      24 SUB   3 BERM  Yld = 19260.3 BIOM =  27621.4
  HRU      25 SUB   3 BERM  Yld = 19299.0 BIOM =  27677.0
  HRU      26 SUB   3 FRSD  Yld =  4131.1 BIOM =  19158.0
  HRU      27 SUB   3 FRSD  Yld =  4105.4 BIOM =  19068.7
  HRU      28 SUB   3 FRSD  Yld =  4101.1 BIOM =  19053.9
  HRU      29 SUB   3 FRSE  Yld =  4528.8 BIOM =  21723.7
  HRU      30 SUB   3 FRSE  Yld =  4530.8 BIOM =  21730.5
  HRU      31 SUB   4 BERM  Yld = 19591.2 BIOM =  28096.6
  HRU      32 SUB   4 BERM  Yld = 19592.0 BIOM =  28097.8
  HRU      33 SUB   4 FRSD  Yld =  4109.8 BIOM =  19084.2
  HRU      34 SUB   4 FRSD  Yld =  4085.6 BIOM =  19000.3
  HRU      35 SUB   4 FRSD  Yld =  4081.3 BIOM =  18985.2
  HRU      36 SUB   4 FRSE  Yld =  4496.6 BIOM =  21612.0
  HRU      37 SUB   4 FRSE  Yld =  4497.6 BIOM =  21615.5
  HRU      38 SUB   4 HAY   Yld = 16922.3 BIOM =  31730.0
  HRU      39 SUB   4 HAY   Yld = 16927.5 BIOM =  31748.8

    HRU STATISTICS

                AVE ANNUAL VALUES

   HRU  SUB  SOIL       AREAkm2    CN     AWCmm   USLE_LS  IRRmm  AUTONkh AUTOPkh  MIXEF PRECmm SURQGENmm   GWQmm    ETmm   SEDth  NO3kgh  ORGNkgh BIOMth   YLDth  SURQmm
      1   1   MAYODAN    .197E+01   63.29  165.02    0.56    0.00  184.38    0.00    0.20  916.47   68.23   12.28  792.72    0.15    2.49    0.34   24.98   17.41   68.23
      2   1   MAYODAN    .154E+01   63.29  165.02    1.15    0.00  184.21    0.00    0.20  916.47   66.99   18.44  788.65    0.29    2.69    0.64   24.82   17.30   66.99
      3   1   HERNDON    .300E+01   63.29  286.93    0.58    0.00  193.40    0.00    0.20  916.47   59.47    0.55  811.35    0.27    2.51    0.38   26.99   18.81   59.47
      4   1   HERNDON    .419E+01   63.29  286.93    1.25    0.00  193.47    0.00    0.20  916.47   59.46    1.64  810.32    0.62    2.53    0.73   26.94   18.77   59.46
      5   1   HIWASSEE   .325E+01   63.29  305.89    0.58    0.00  195.25    0.00    0.20  916.47   59.09    1.87  809.75    0.21    2.55    0.46   27.74   19.32   59.09
      6   1   HIWASSEE   .499E+01   63.29  305.89    1.28    0.00  195.46    0.00    0.20  916.47   59.09    5.61  806.22    0.48    2.63    0.92   27.66   19.27   59.09
      7   1   MAYODAN    .452E+00   73.82  165.02    1.15    0.00  180.55    0.00    0.20  916.47  185.27   13.08  684.73    0.72    5.51    1.92   21.52   15.03  185.27
      8   1   MAYODAN    .396E+00   73.82  165.02    0.18    0.00  180.87    0.00    0.20  916.47  185.70    1.20  695.09    0.14    5.28    0.88   21.74   15.18  185.70
      9   1   MAYODAN    .869E+00   73.82  165.02    0.56    0.00  180.95    0.00    0.20  916.47  185.58    4.63  692.09    0.39    5.25    1.16   21.66   15.12  185.58
     10   1   HERNDON    .163E+01   73.82  286.93    1.25    0.00  196.61    0.00    0.20  916.47  179.57    1.29  700.80    1.50    5.98    1.76   22.48   15.69  179.57
     11   1   HERNDON    .126E+01   73.82  286.93    0.58    0.00  196.51    0.00    0.20  916.47  179.58    0.43  701.60    0.68    5.97    1.15   22.49   15.70  179.58
     12   1   HIWASSEE   .877E+00   73.82  305.89    0.56    0.00  199.49    0.00    0.20  916.47  178.76    1.44  700.45    0.48    6.01    1.32   22.85   15.94  178.76
     13   1   HIWASSEE   .975E+00   73.82  305.89    1.20    0.00  199.67    0.00    0.20  916.47  178.76    4.24  697.82    1.01    6.07    2.11   22.80   15.91  178.76
     14   2   HIWASSEE   .101E+02   63.29  305.89    1.25    0.00  195.46    0.00    0.20  927.67   60.18    5.62  810.46    0.57    2.68    1.04   27.85   19.40   60.18
     15   2   HIWASSEE   .690E+01   63.29  305.89    0.58    0.00  195.21    0.00    0.20  927.67   60.18    1.90  813.98    0.25    2.58    0.54   27.92   19.45   60.18
     16   2   HERNDON    .407E+00   73.82  286.93    0.58    0.00  196.51    0.00    0.20  927.67  182.85    0.44  704.18    0.67    6.17    1.44   22.41   15.65  182.85
     17   2   HERNDON    .564E+00   73.82  286.93    1.28    0.00  196.62    0.00    0.20  927.67  182.84    1.33  703.35    1.50    6.14    2.02   22.40   15.65  182.84
     18   2   HIWASSEE   .283E+01   73.82  305.89    0.58    0.00  199.59    0.00    0.20  927.67  182.03    1.50  703.49    0.62    6.00    1.39   22.71   15.86  182.03
     19   2   HIWASSEE   .341E+01   73.82  305.89    1.25    0.00  199.77    0.00    0.20  927.67  182.03    4.44  700.73    1.34    6.09    2.35   22.68   15.84  182.03
     20   2   HIWASSEE   .328E+01   66.00  305.89    1.33    0.00    0.00    0.00    0.20  927.67   36.74  100.90  802.72    0.02    0.15    0.05   21.66    0.00   36.74
     21   2   HIWASSEE   .270E+01   66.00  305.89    1.96    0.00    0.00    0.00    0.20  927.67   33.40  104.38  800.99    0.02    0.32    0.06   21.88    0.00   33.40
     22   3   HIWASSEE   .231E+01   63.29  305.89    1.15    0.00  200.51    0.00    0.20 1005.37   69.21  148.21  889.23    0.66    2.38    1.21   28.30   19.73   69.21
     23   3   HIWASSEE   .286E+01   63.29  305.89    0.58    0.00  200.51    0.00    0.20 1005.37   69.30  147.49  889.83    0.34    2.30    0.70   28.33   19.75   69.30
     24   3   HIWASSEE   .707E+00   73.82  305.89    1.18    0.00  197.82    0.00    0.20 1005.37  199.49   42.24  853.33    1.28    4.67    2.50   27.62   19.26  199.49
     25   3   HIWASSEE   .101E+01   73.82  305.89    0.58    0.00  197.64    0.00    0.20 1005.37  199.70   40.78  855.36    0.68    4.55    1.64   27.68   19.30  199.70
     26   3   HIWASSEE   .123E+01   66.00  305.89    2.05    0.00    0.00    0.00    0.20 1005.37   25.49  251.23  829.49    0.02    0.31    0.05   21.08    0.00   25.49
     27   3   HIWASSEE   .161E+01   66.00  305.89    1.31    0.00    0.00    0.00    0.20 1005.37   27.11  246.01  831.20    0.02    0.15    0.03   20.95    0.00   27.11
     28   3   HIWASSEE   .123E+01   66.00  305.89    0.58    0.00    0.00    0.00    0.20 1005.37   27.42  244.92  831.49    0.01    0.12    0.01   20.92    0.00   27.42
     29   3   HIWASSEE   .161E+01   55.00  305.89    0.56    0.00    0.00    0.00    0.20 1005.37    6.82  270.73  852.26    0.00    0.04    0.00   23.04    0.00    6.82
     30   3   HIWASSEE   .128E+01   55.00  305.89    1.15    0.00    0.00    0.00    0.20 1005.37    6.74  271.42  851.57    0.00    0.06    0.01   23.05    0.00    6.74
     31   4   HIWASSEE   .294E+01   63.29  305.89    1.25    0.00  200.89    0.00    0.20 1001.87   69.10  149.92  886.25    0.80    2.66    1.36   28.10   19.59   69.10
     32   4   HIWASSEE   .241E+01   63.29  305.89    0.58    0.00  200.89    0.00    0.20 1001.87   69.20  149.16  886.89    0.36    2.57    0.72   28.10   19.59   69.20
     33   4   HIWASSEE   .282E+01   66.00  305.89    1.89    0.00    0.00    0.00    0.20 1001.87   26.05  253.00  828.92    0.03    0.31    0.05   20.97    0.00   26.05
     34   4   HIWASSEE   .427E+01   66.00  305.89    1.33    0.00    0.00    0.00    0.20 1001.87   27.56  248.35  830.70    0.02    0.15    0.04   20.84    0.00   27.56
     35   4   HIWASSEE   .210E+01   66.00  305.89    0.60    0.00    0.00    0.00    0.20 1001.87   27.88  247.29  831.03    0.01    0.12    0.02   20.82    0.00   27.88
     36   4   HIWASSEE   .234E+01   55.00  305.89    0.60    0.00    0.00    0.00    0.20 1001.87    6.86  273.58  848.51    0.00    0.04    0.00   22.87    0.00    6.86
     37   4   HIWASSEE   .439E+01   55.00  305.89    1.28    0.00    0.00    0.00    0.20 1001.87    6.77  274.29  847.80    0.00    0.07    0.01   22.88    0.00    6.77
     38   4   HIWASSEE   .178E+01   59.00  305.89    1.20    0.00  316.42    0.00    0.20 1001.87    3.84  176.05  937.10    0.01    0.45    0.02   18.34   16.90    3.84
     39   4   HIWASSEE   .172E+01   59.00  305.89    0.58    0.00  316.37    0.00    0.20 1001.87    3.87  175.40  937.84    0.00    0.25    0.01   18.34   16.90    3.87



                AVE MONTHLY BASIN VALUES
                   SNOW                      WATER               SED
  MON     RAIN     FALL   SURF Q    LAT Q    YIELD       ET    YIELD      PET
          (MM)     (MM)     (MM)     (MM)     (MM)     (MM)   (T/HA)     (MM)
    1    61.10    17.33     4.16     0.73    22.00    27.72     0.03    58.84
    2    61.13     1.72     4.36     0.53    20.29    31.54     0.06    64.29
    3    88.68     0.00     6.20     0.76    22.56    53.46     0.11   110.26
    4    44.76     0.00     2.40     0.56    17.41    56.70     0.09   151.79
    5    62.20     0.00     3.66     0.37    12.95    96.45     0.02   168.92
    6   156.40     0.00    15.08     0.65    19.87   134.91     0.01   166.44
    7   136.26     0.00    10.43     0.73    14.00   152.67     0.01   184.32
    8    92.28     0.00     6.80     0.79    10.86   124.48     0.01   160.46
    9    41.60     0.00     2.32     0.42     4.91    57.43     0.00   141.02
   10    75.13     0.00     3.87     0.52     5.59    35.28     0.00    85.26
   11    70.78     0.00     4.60     0.43     6.72    28.26     0.01    72.23
   12    81.36    15.74     4.97     0.71     8.55    29.32     0.01    55.25

     AVE ANNUAL BASIN STRESS DAYS
               WATER STRESS DAYS =     5.70
               TEMPERATURE STRESS DAYS =    19.24
               NITROGEN STRESS DAYS =    30.93
               PHOSPHORUS STRESS DAYS =     0.00
               AERATION STRESS DAYS =     0.00
1
    SWAT Dec 6 2013    VER 2012/Rev 613                                             

    General Input/Output section (file.cio):                                        
    2/7/2013 12:00:00 AM ARCGIS-SWAT interface AV                                   
                                                                                    
         AVE ANNUAL BASIN VALUES

              PRECIP =    972.8 MM
              SNOW FALL =   34.81 MM
              SNOW MELT =    34.69 MM
              SUBLIMATION =     0.12 MM
              SURFACE RUNOFF Q =    68.92 MM
              LATERAL SOIL Q =    7.20 MM
              TILE Q =     0.00 MM
              GROUNDWATER (SHAL AQ) Q =    89.94 MM
              GROUNDWATER (DEEP AQ) Q =     0.00 MM
              REVAP (SHAL AQ => SOIL/PLANTS) =    5.32 MM
              DEEP AQ RECHARGE =     0.00 MM
              TOTAL AQ RECHARGE =   83.22 MM
              TOTAL WATER YLD =   166.06 MM
              PERCOLATION OUT OF SOIL =   72.35 MM
              ET =    828.8 MM
              PET =   1420.2MM
              TRANSMISSION LOSSES =     0.00 MM
              SEPTIC INFLOW =       0.00 MM
              TOTAL SEDIMENT LOADING =     0.382 T/HA
              TILE FROM IMPOUNDED WATER =     0.000 (MM)
              EVAPORATION FROM IMPOUNDED WATER =     0.000 (MM)
              SEEPAGE INTO SOIL FROM IMPOUNDED WATER =    0.000 (MM)
              OVERFLOW FROM IMPOUNDED WATER =    0.000 (MM)
1
    SWAT Dec 6 2013    VER 2012/Rev 613                                             

    General Input/Output section (file.cio):                                        
    2/7/2013 12:00:00 AM ARCGIS-SWAT interface AV                                   
                                                                                    
              AVE ANNUAL BASIN VALUES


              NUTRIENTS
                   ORGANIC N =     0.697 (KG/HA)
                   ORGANIC P =     0.104 (KG/HA)
                   NO3 YIELD (SQ) =     2.230 (KG/HA)
                   NO3 YIELD (LAT) =    0.089 (KG/HA)
                   NO3 YIELD (TILE) =    0.000 (KG/HA)
                   SOLP YIELD (TILE) =    0.000(KG/HA)
                   SOLP YIELD (SURF INLET RISER) =    0.000 (KG/HA)
                   SOL P YIELD =    0.019 (KG/HA)
                   NO3 LEACHED =     2.923 (KG/HA)
                   P LEACHED =     0.031 (KG/HA)
                   N UPTAKE =   170.958 (KG/HA)
                   P UPTAKE =   44.650 (KG/HA)
                   NO3 YIELD (GWQ) =     1.054 (KG/HA)
                   ACTIVE TO SOLUTION P FLOW =       -33.804 (KG/HA)
                   ACTIVE TO STABLE P FLOW =       -29.197 (KG/HA)
                   N FERTILIZER APPLIED =   142.809 (KG/HA)
                   P FERTILIZER APPLIED =     0.000 (KG/HA)
                   N FIXATION =     0.000 (KG/HA)
                   DENITRIFICATION =     0.000 (KG/HA)
                   HUMUS MIN ON ACTIVE ORG N =     3.122 (KG/HA)
                   ACTIVE TO STABLE ORG N =     0.207 (KG/HA)
                   HUMUS MIN ON ACTIVE ORG P =    0.546 (KG/HA)
                   MIN FROM FRESH ORG N =   31.107 (KG/HA)
                   MIN FROM FRESH ORG P =   10.872 (KG/HA)
                   NO3 IN RAINFALL =     9.727 (KG/HA)
                   INITIAL NO3 IN SOIL =      50.158 (KG/HA)
                   FINAL NO3 IN SOIL =        16.790 (KG/HA)
                   INITIAL ORG N IN SOIL =    3571.456 (KG/HA)
                   FINAL ORG N IN SOIL =      3611.485 (KG/HA)
                   INITIAL MIN P IN SOIL =    3807.890 (KG/HA)
                   FINAL MIN P IN SOIL =      3707.376 (KG/HA)
                   INITIAL ORG P IN SOIL =     437.503 (KG/HA)
                   FINAL ORG P IN SOIL =     453.519 (KG/HA)
                   NO3 IN FERT =   142.809 (KG/HA)
                   AMMONIA IN FERT =     0.000 (KG/HA)
                   ORG N IN FERT =     0.000 (KG/HA)
                   MINERAL P IN FERT =     0.000 (KG/HA)
                   ORG P IN FERT =     0.000 (KG/HA)
                   N REMOVED IN YIELD =   129.972 (KG/HA)
                   P REMOVED IN YIELD =    30.844 (KG/HA)
                   AMMONIA VOLATILIZATION =     0.000 (KG/HA)
                   AMMONIA NITRIFICATION =      0.000 (KG/HA)
                   NO3 EVAP-LAYER 2 TO 1 =    9.930

                   DIE-GRO P Q =       0.0 (No/HA)
                   DIE-GRO LP Q =       0.0 (No/HA)
                   DIE-GRO P SED =      0.0 (No/HA)
                   DIE-GRO LP SED =      0.0 (No/HA)
                   BACT P RUNOFF =      0.0 (No/HA)
                   BACT LP RUNOFF =      0.0 (No/HA)
                   BACT P SEDIMENT =      0.0 (No/HA)
                   BACT LP SEDIMENT =      0.0 (No/HA)
                   BACT P INCORP =      0.0 (No/HA)
                   BACT LP INCORP =      0.0 (No/HA)

                   NITRATE SEPTIC =         0.00 (kg/ha)
                   AMMONIA SEPTIC =         0.00 (kg/ha)
                   ORG N SEPTIC =         0.00 (kg/ha)
                   FRESH ORGN SEPTIC =         0.00 (kg/ha)
                   ORG P SEPTIC =         0.00 (kg/ha)
                   FRESH ORGP SEPTIC =         0.00 (kg/ha)
                   SOL P SEPTIC =         0.00 (kg/ha)
                   BOD SEPTIC =         0.00 (kg/ha)
