1
    SWAT Dec 6 2013    VER 2012/Rev 613                                                                  0/ 0/   0      0: 0: 0

    General Input/Output section (file.cio):                                        
    2/7/2013 12:00:00 AM ARCGIS-SWAT interface AV                                   
                                                                                    


       RCH      GIS   MON     AREAkm2  FLOW_INcms FLOW_OUTcms
REACH    1        0     1  0.2495E+02  0.7846E-03  0.4693E-02  0.1401E-44
REACH    2        0     1  0.5464E+02  0.6977E-02  0.5432E-01  0.2803E-44
REACH    3        0     1  0.1361E+02  0.9573E-01  0.3206E-01  0.4204E-44
REACH    4        0     1  0.9257E+02  0.1438E+00  0.1445E+00  0.5605E-44
REACH    1        0     2  0.2495E+02  0.7641E-03  0.4509E-02  0.1401E-44
REACH    2        0     2  0.5464E+02  0.6716E-02  0.5208E-01  0.2803E-44
REACH    3        0     2  0.1361E+02  0.4815E-02  0.3078E-01  0.4204E-44
REACH    4        0     2  0.9257E+02  0.9295E-01  0.1421E+00  0.5605E-44
REACH    1        0     3  0.2495E+02  0.7452E-03  0.4333E-02  0.1401E-44
REACH    2        0     3  0.5464E+02  0.6465E-02  0.4994E-01  0.2803E-44
REACH    3        0     3  0.1361E+02  0.4485E-02  0.2955E-01  0.4204E-44
REACH    4        0     3  0.9257E+02  0.8912E-01  0.1396E+00  0.5605E-44
REACH    1        0     4  0.2495E+02  0.7274E-03  0.4163E-02  0.1401E-44
REACH    2        0     4  0.5464E+02  0.6226E-02  0.4789E-01  0.2803E-44
REACH    3        0     4  0.1361E+02  0.4308E-02  0.2837E-01  0.4204E-44
REACH    4        0     4  0.9257E+02  0.8550E-01  0.1370E+00  0.5605E-44
REACH    1        0     5  0.2495E+02  0.1275E+00  0.1163E+00  0.1401E-44
REACH    2        0     5  0.5464E+02  0.2451E+00  0.5714E-01  0.2803E-44
REACH    3        0     5  0.1361E+02  0.2711E-01  0.2831E-01  0.4204E-44
REACH    4        0     5  0.9257E+02  0.1065E+00  0.1356E+00  0.5605E-44
REACH    1        0     6  0.2495E+02  0.1586E-02  0.4567E-02  0.1401E-44
REACH    2        0     6  0.5464E+02  0.6994E-02  0.5478E-01  0.2803E-44
REACH    3        0     6  0.1361E+02  0.9580E-02  0.2743E-01  0.4204E-44
REACH    4        0     6  0.9257E+02  0.9416E-01  0.1337E+00  0.5605E-44
REACH    1        0     7  0.2495E+02  0.1081E-02  0.4403E-02  0.1401E-44
REACH    2        0     7  0.5464E+02  0.6614E-02  0.5252E-01  0.2803E-44
REACH    3        0     7  0.1361E+02  0.4125E-02  0.2634E-01  0.4204E-44
REACH    4        0     7  0.9257E+02  0.8771E-01  0.1315E+00  0.5605E-44
REACH    1        0     8  0.2495E+02  0.6218E-01  0.5210E-01  0.1401E-44
REACH    2        0     8  0.5464E+02  0.1154E+00  0.5547E-01  0.2803E-44
REACH    3        0     8  0.1361E+02  0.7649E-02  0.2546E-01  0.4204E-44
REACH    4        0     8  0.9257E+02  0.9141E-01  0.1296E+00  0.5605E-44
REACH    1        0     9  0.2495E+02  0.3389E-01  0.2477E-01  0.1401E-44
REACH    2        0     9  0.5464E+02  0.5931E-01  0.5565E-01  0.2803E-44
REACH    3        0     9  0.1361E+02  0.3851E-02  0.2445E-01  0.4204E-44
REACH    4        0     9  0.9257E+02  0.8835E-01  0.1277E+00  0.5605E-44
REACH    1        0    10  0.2495E+02  0.1501E-02  0.5166E-02  0.1401E-44
REACH    2        0    10  0.5464E+02  0.7659E-02  0.5340E-01  0.2803E-44
REACH    3        0    10  0.1361E+02  0.3699E-02  0.2348E-01  0.4204E-44
REACH    4        0    10  0.9257E+02  0.8481E-01  0.1257E+00  0.5605E-44
REACH    1        0    11  0.2495E+02  0.1104E-02  0.4975E-02  0.1401E-44
REACH    2        0    11  0.5464E+02  0.7346E-02  0.5124E-01  0.2803E-44
REACH    3        0    11  0.1361E+02  0.3558E-02  0.2254E-01  0.4204E-44
REACH    4        0    11  0.9257E+02  0.8141E-01  0.1236E+00  0.5605E-44
REACH    1        0    12  0.2495E+02  0.3281E+00  0.2503E+00  0.1401E-44
REACH    2        0    12  0.5464E+02  0.5804E+00  0.7604E-01  0.2803E-44
REACH    3        0    12  0.1361E+02  0.3129E+00  0.3615E-01  0.4204E-44
REACH    4        0    12  0.9257E+02  0.3475E+00  0.1341E+00  0.5605E-44
REACH    1        0    13  0.2495E+02  0.3150E-02  0.8517E-02  0.1401E-44
REACH    2        0    13  0.5464E+02  0.1246E-01  0.7306E-01  0.2803E-44
REACH    3        0    13  0.1361E+02  0.7361E-01  0.3790E-01  0.4204E-44
REACH    4        0    13  0.9257E+02  0.1588E+00  0.1353E+00  0.5605E-44
REACH    1        0    14  0.2495E+02  0.1824E-02  0.8203E-02  0.1401E-44
REACH    2        0    14  0.5464E+02  0.1165E-01  0.7018E-01  0.2803E-44
REACH    3        0    14  0.1361E+02  0.5916E-02  0.3641E-01  0.4204E-44
REACH    4        0    14  0.9257E+02  0.1192E+00  0.1345E+00  0.5605E-44
REACH    1        0    15  0.2495E+02  0.1344E-02  0.7882E-02  0.1401E-44
REACH    2        0    15  0.5464E+02  0.1119E-01  0.6741E-01  0.2803E-44
REACH    3        0    15  0.1361E+02  0.5792E-02  0.3497E-01  0.4204E-44
REACH    4        0    15  0.9257E+02  0.1149E+00  0.1336E+00  0.5605E-44
REACH    1        0    16  0.2495E+02  0.1094E-02  0.7564E-02  0.1401E-44
REACH    2        0    16  0.5464E+02  0.1074E-01  0.6476E-01  0.2803E-44
REACH    3        0    16  0.1361E+02  0.5789E-02  0.3360E-01  0.4204E-44
REACH    4        0    16  0.9257E+02  0.1109E+00  0.1325E+00  0.5605E-44
REACH    1        0    17  0.2495E+02  0.9576E-03  0.7254E-02  0.1401E-44
REACH    2        0    17  0.5464E+02  0.1030E-01  0.6220E-01  0.2803E-44
REACH    3        0    17  0.1361E+02  0.5787E-02  0.3230E-01  0.4204E-44
REACH    4        0    17  0.9257E+02  0.1070E+00  0.1313E+00  0.5605E-44
REACH    1        0    18  0.2495E+02  0.5352E+00  0.4590E+00  0.1401E-44
REACH    2        0    18  0.5464E+02  0.9973E+00  0.1060E+00  0.2803E-44
REACH    3        0    18  0.1361E+02  0.5779E-02  0.3105E-01  0.4204E-44
REACH    4        0    18  0.9257E+02  0.1496E+00  0.1322E+00  0.5605E-44
REACH    1        0    19  0.2495E+02  0.4383E-02  0.1069E-01  0.1401E-44
REACH    2        0    19  0.5464E+02  0.1579E-01  0.1018E+00  0.2803E-44
REACH    3        0    19  0.1361E+02  0.1178E-01  0.3015E-01  0.4204E-44
REACH    4        0    19  0.9257E+02  0.1476E+00  0.1329E+00  0.5605E-44
REACH    1        0    20  0.2495E+02  0.2391E-02  0.1030E-01  0.1401E-44
REACH    2        0    20  0.5464E+02  0.1463E-01  0.9771E-01  0.2803E-44
REACH    3        0    20  0.1361E+02  0.5806E-02  0.2901E-01  0.4204E-44
REACH    4        0    20  0.9257E+02  0.1393E+00  0.1332E+00  0.5605E-44
REACH    1        0    21  0.2495E+02  0.1698E-02  0.9895E-02  0.1401E-44
REACH    2        0    21  0.5464E+02  0.1405E-01  0.9379E-01  0.2803E-44
REACH    3        0    21  0.1361E+02  0.1438E-01  0.2832E-01  0.4204E-44
REACH    4        0    21  0.9257E+02  0.1392E+00  0.1335E+00  0.5605E-44
REACH    1        0    22  0.2495E+02  0.1342E-02  0.9494E-02  0.1401E-44
REACH    2        0    22  0.5464E+02  0.1347E-01  0.9002E-01  0.2803E-44
REACH    3        0    22  0.1361E+02  0.8998E-01  0.3121E-01  0.4204E-44
REACH    4        0    22  0.9257E+02  0.1791E+00  0.1356E+00  0.5605E-44
REACH    1        0    23  0.2495E+02  0.1149E-02  0.9103E-02  0.1401E-44
REACH    2        0    23  0.5464E+02  0.1292E-01  0.8640E-01  0.2803E-44
REACH    3        0    23  0.1361E+02  0.6878E-02  0.3007E-01  0.4204E-44
REACH    4        0    23  0.9257E+02  0.1312E+00  0.1354E+00  0.5605E-44
REACH    1        0    24  0.2495E+02  0.1039E-02  0.8725E-02  0.1401E-44
REACH    2        0    24  0.5464E+02  0.1239E-01  0.8293E-01  0.2803E-44
REACH    3        0    24  0.1361E+02  0.5166E-01  0.3108E-01  0.4204E-44
REACH    4        0    24  0.9257E+02  0.1530E+00  0.1362E+00  0.5605E-44
REACH    1        0    25  0.2495E+02  0.1278E+00  0.1209E+00  0.1401E-44
REACH    2        0    25  0.5464E+02  0.2513E+00  0.9082E-01  0.2803E-44
REACH    3        0    25  0.1361E+02  0.7623E-02  0.2998E-01  0.4204E-44
REACH    4        0    25  0.9257E+02  0.1373E+00  0.1363E+00  0.5605E-44
REACH    1        0    26  0.2495E+02  0.1817E-02  0.8721E-02  0.1401E-44
REACH    2        0    26  0.5464E+02  0.1260E-01  0.8715E-01  0.2803E-44
REACH    3        0    26  0.1361E+02  0.7784E-02  0.2894E-01  0.4204E-44
REACH    4        0    26  0.9257E+02  0.1331E+00  0.1361E+00  0.5605E-44
REACH    1        0    27  0.2495E+02  0.1295E-02  0.8373E-02  0.1401E-44
REACH    2        0    27  0.5464E+02  0.1196E-01  0.8363E-01  0.2803E-44
REACH    3        0    27  0.1361E+02  0.7994E-02  0.2796E-01  0.4204E-44
REACH    4        0    27  0.9257E+02  0.1290E+00  0.1358E+00  0.5605E-44
REACH    1        0    28  0.2495E+02  0.1097E-02  0.8032E-02  0.1401E-44
REACH    2        0    28  0.5464E+02  0.1148E-01  0.8025E-01  0.2803E-44
REACH    3        0    28  0.1361E+02  0.8179E-02  0.2703E-01  0.4204E-44
REACH    4        0    28  0.9257E+02  0.1251E+00  0.1353E+00  0.5605E-44
REACH    1        0    29  0.2495E+02  0.9880E-03  0.7702E-02  0.1401E-44
REACH    2        0    29  0.5464E+02  0.1101E-01  0.7700E-01  0.2803E-44
REACH    3        0    29  0.1361E+02  0.8333E-02  0.2616E-01  0.4204E-44
REACH    4        0    29  0.9257E+02  0.1213E+00  0.1346E+00  0.5605E-44
REACH    1        0    30  0.2495E+02  0.9224E-03  0.7384E-02  0.1401E-44
REACH    2        0    30  0.5464E+02  0.1057E-01  0.7388E-01  0.2803E-44
REACH    3        0    30  0.1361E+02  0.8461E-02  0.2533E-01  0.4204E-44
REACH    4        0    30  0.9257E+02  0.1176E+00  0.1338E+00  0.5605E-44
REACH    1        0    31  0.2495E+02  0.8789E-03  0.7079E-02  0.1401E-44
REACH    2        0    31  0.5464E+02  0.1014E-01  0.7089E-01  0.2803E-44
REACH    3        0    31  0.1361E+02  0.8569E-02  0.2454E-01  0.4204E-44
REACH    4        0    31  0.9257E+02  0.1141E+00  0.1329E+00  0.5605E-44
REACH    1        0    32  0.2495E+02  0.8469E-03  0.6787E-02  0.1401E-44
REACH    2        0    32  0.5464E+02  0.9730E-02  0.6803E-01  0.2803E-44
REACH    3        0    32  0.1361E+02  0.4194E-01  0.2535E-01  0.4204E-44
REACH    4        0    32  0.9257E+02  0.1297E+00  0.1327E+00  0.5605E-44
REACH    1        0    33  0.2495E+02  0.8210E-03  0.6507E-02  0.1401E-44
REACH    2        0    33  0.5464E+02  0.9339E-02  0.6527E-01  0.2803E-44
REACH    3        0    33  0.1361E+02  0.1031E-01  0.2465E-01  0.4204E-44
REACH    4        0    33  0.9257E+02  0.1101E+00  0.1317E+00  0.5605E-44
REACH    1        0    34  0.2495E+02  0.7987E-03  0.6240E-02  0.1401E-44
REACH    2        0    34  0.5464E+02  0.8965E-02  0.6263E-01  0.2803E-44
REACH    3        0    34  0.1361E+02  0.8977E-02  0.2391E-01  0.4204E-44
REACH    4        0    34  0.9257E+02  0.1061E+00  0.1305E+00  0.5605E-44
REACH    1        0    35  0.2495E+02  0.7784E-03  0.5984E-02  0.1401E-44
REACH    2        0    35  0.5464E+02  0.8607E-02  0.6010E-01  0.2803E-44
REACH    3        0    35  0.1361E+02  0.9001E-02  0.2321E-01  0.4204E-44
REACH    4        0    35  0.9257E+02  0.1029E+00  0.1292E+00  0.5605E-44
REACH    1        0    36  0.2495E+02  0.7594E-03  0.5739E-02  0.1401E-44
REACH    2        0    36  0.5464E+02  0.8265E-02  0.5767E-01  0.2803E-44
REACH    3        0    36  0.1361E+02  0.9014E-02  0.2255E-01  0.4204E-44
REACH    4        0    36  0.9257E+02  0.9980E-01  0.1278E+00  0.5605E-44
REACH    1        0    37  0.2495E+02  0.7414E-03  0.5505E-02  0.1401E-44
REACH    2        0    37  0.5464E+02  0.7939E-02  0.5534E-01  0.2803E-44
REACH    3        0    37  0.1361E+02  0.9013E-02  0.2191E-01  0.4204E-44
REACH    4        0    37  0.9257E+02  0.9682E-01  0.1263E+00  0.5605E-44
REACH    1        0    38  0.2495E+02  0.7240E-03  0.5280E-02  0.1401E-44
REACH    2        0    38  0.5464E+02  0.7627E-02  0.5310E-01  0.2803E-44
REACH    3        0    38  0.1361E+02  0.1607E-01  0.2164E-01  0.4204E-44
REACH    4        0    38  0.9257E+02  0.9804E-01  0.1250E+00  0.5605E-44
REACH    1        0    39  0.2495E+02  0.3534E+00  0.2758E+00  0.1401E-44
REACH    2        0    39  0.5464E+02  0.6318E+00  0.8022E-01  0.2803E-44
REACH    3        0    39  0.1361E+02  0.9510E-02  0.2107E-01  0.4204E-44
REACH    4        0    39  0.9257E+02  0.1212E+00  0.1248E+00  0.5605E-44
REACH    1        0    40  0.2495E+02  0.2663E-02  0.8778E-02  0.1401E-44
REACH    2        0    40  0.5464E+02  0.1216E-01  0.7703E-01  0.2803E-44
REACH    3        0    40  0.1361E+02  0.1513E+00  0.2717E-01  0.4204E-44
REACH    4        0    40  0.9257E+02  0.2173E+00  0.1292E+00  0.5605E-44
REACH    1        0    41  0.2495E+02  0.1525E-02  0.8438E-02  0.1401E-44
REACH    2        0    41  0.5464E+02  0.1132E-01  0.7395E-01  0.2803E-44
REACH    3        0    41  0.1361E+02  0.1053E-01  0.2639E-01  0.4204E-44
REACH    4        0    41  0.9257E+02  0.1229E+00  0.1289E+00  0.5605E-44
REACH    1        0    42  0.2495E+02  0.4410E+00  0.3659E+00  0.1401E-44
REACH    2        0    42  0.5464E+02  0.8091E+00  0.1084E+00  0.2803E-44
REACH    3        0    42  0.1361E+02  0.1048E-01  0.2565E-01  0.4204E-44
REACH    4        0    42  0.9257E+02  0.1569E+00  0.1302E+00  0.5605E-44
REACH    1        0    43  0.2495E+02  0.7403E-02  0.1189E-01  0.1401E-44
REACH    2        0    43  0.5464E+02  0.1987E-01  0.1043E+00  0.2803E-44
REACH    3        0    43  0.1361E+02  0.1062E-01  0.2494E-01  0.4204E-44
REACH    4        0    43  0.9257E+02  0.1523E+00  0.1312E+00  0.5605E-44
REACH    1        0    44  0.2495E+02  0.2459E-02  0.1145E-01  0.1401E-44
REACH    2        0    44  0.5464E+02  0.1575E-01  0.1001E+00  0.2803E-44
REACH    3        0    44  0.1361E+02  0.1074E-01  0.2428E-01  0.4204E-44
REACH    4        0    44  0.9257E+02  0.1478E+00  0.1320E+00  0.5605E-44
REACH    1        0    45  0.2495E+02  0.1726E-02  0.1099E-01  0.1401E-44
REACH    2        0    45  0.5464E+02  0.1511E-01  0.9612E-01  0.2803E-44
REACH    3        0    45  0.1361E+02  0.1082E-01  0.2364E-01  0.4204E-44
REACH    4        0    45  0.9257E+02  0.1434E+00  0.1325E+00  0.5605E-44
REACH    1        0    46  0.2495E+02  0.1351E-02  0.1054E-01  0.1401E-44
REACH    2        0    46  0.5464E+02  0.1449E-01  0.9229E-01  0.2803E-44
REACH    3        0    46  0.1361E+02  0.1088E-01  0.2305E-01  0.4204E-44
REACH    4        0    46  0.9257E+02  0.1391E+00  0.1328E+00  0.5605E-44
REACH    1        0    47  0.2495E+02  0.1149E-02  0.1010E-01  0.1401E-44
REACH    2        0    47  0.5464E+02  0.1389E-01  0.8862E-01  0.2803E-44
REACH    3        0    47  0.1361E+02  0.1092E-01  0.2248E-01  0.4204E-44
REACH    4        0    47  0.9257E+02  0.1349E+00  0.1329E+00  0.5605E-44
REACH    1        0    48  0.2495E+02  0.1034E-02  0.9676E-02  0.1401E-44
REACH    2        0    48  0.5464E+02  0.1331E-01  0.8508E-01  0.2803E-44
REACH    3        0    48  0.1361E+02  0.1094E-01  0.2194E-01  0.4204E-44
REACH    4        0    48  0.9257E+02  0.1309E+00  0.1328E+00  0.5605E-44
REACH    1        0    49  0.2495E+02  0.4329E+00  0.3592E+00  0.1401E-44
REACH    2        0    49  0.5464E+02  0.7951E+00  0.1184E+00  0.2803E-44
REACH    3        0    49  0.1361E+02  0.1095E-01  0.2142E-01  0.4204E-44
REACH    4        0    49  0.9257E+02  0.1637E+00  0.1343E+00  0.5605E-44
REACH    1        0    50  0.2495E+02  0.5072E-01  0.4920E-01  0.1401E-44
REACH    2        0    50  0.5464E+02  0.1006E+00  0.1175E+00  0.2803E-44
REACH    3        0    50  0.1361E+02  0.1094E-01  0.2093E-01  0.4204E-44
REACH    4        0    50  0.9257E+02  0.1623E+00  0.1356E+00  0.5605E-44
REACH    1        0    51  0.2495E+02  0.3061E-02  0.1287E-01  0.1401E-44
REACH    2        0    51  0.5464E+02  0.1794E-01  0.1129E+00  0.2803E-44
REACH    3        0    51  0.1361E+02  0.1091E-01  0.2046E-01  0.4204E-44
REACH    4        0    51  0.9257E+02  0.1571E+00  0.1366E+00  0.5605E-44
REACH    1        0    52  0.2495E+02  0.2068E-02  0.1236E-01  0.1401E-44
REACH    2        0    52  0.5464E+02  0.1717E-01  0.1084E+00  0.2803E-44
REACH    3        0    52  0.1361E+02  0.6861E+00  0.5777E-01  0.4204E-44
REACH    4        0    52  0.9257E+02  0.9855E+00  0.1764E+00  0.5605E-44
REACH    1        0    53  0.2495E+02  0.1589E-02  0.1186E-01  0.1401E-44
REACH    2        0    53  0.5464E+02  0.1647E-01  0.1041E+00  0.2803E-44
REACH    3        0    53  0.1361E+02  0.1451E-01  0.4937E-01  0.4204E-44
REACH    4        0    53  0.9257E+02  0.1844E+00  0.1767E+00  0.5605E-44
REACH    1        0    54  0.2495E+02  0.1334E-02  0.1137E-01  0.1401E-44
REACH    2        0    54  0.5464E+02  0.1578E-01  0.9992E-01  0.2803E-44
REACH    3        0    54  0.1361E+02  0.1405E-01  0.4772E-01  0.4204E-44
REACH    4        0    54  0.9257E+02  0.1785E+00  0.1768E+00  0.5605E-44
REACH    1        0    55  0.2495E+02  0.3663E+00  0.2946E+00  0.1401E-44
REACH    2        0    55  0.5464E+02  0.6651E+00  0.1264E+00  0.2803E-44
REACH    3        0    55  0.1361E+02  0.1449E-01  0.4616E-01  0.4204E-44
REACH    4        0    55  0.9257E+02  0.2044E+00  0.1781E+00  0.5605E-44
REACH    1        0    56  0.2495E+02  0.3209E-02  0.1433E-01  0.1401E-44
REACH    2        0    56  0.5464E+02  0.1979E-01  0.1214E+00  0.2803E-44
REACH    3        0    56  0.1361E+02  0.1488E-01  0.4469E-01  0.4204E-44
REACH    4        0    56  0.9257E+02  0.1989E+00  0.1791E+00  0.5605E-44
REACH    1        0    57  0.2495E+02  0.1963E-02  0.1375E-01  0.1401E-44
REACH    2        0    57  0.5464E+02  0.1860E-01  0.1166E+00  0.2803E-44
REACH    3        0    57  0.1361E+02  0.3973E-01  0.4446E-01  0.4204E-44
REACH    4        0    57  0.9257E+02  0.2075E+00  0.1804E+00  0.5605E-44
REACH    1        0    58  0.2495E+02  0.1540E-02  0.1318E-01  0.1401E-44
REACH    2        0    58  0.5464E+02  0.1783E-01  0.1120E+00  0.2803E-44
REACH    3        0    58  0.1361E+02  0.1834E-01  0.4323E-01  0.4204E-44
REACH    4        0    58  0.9257E+02  0.1911E+00  0.1809E+00  0.5605E-44
REACH    1        0    59  0.2495E+02  0.1316E-02  0.1262E-01  0.1401E-44
REACH    2        0    59  0.5464E+02  0.1708E-01  0.1075E+00  0.2803E-44
REACH    3        0    59  0.1361E+02  0.1588E-01  0.4195E-01  0.4204E-44
REACH    4        0    59  0.9257E+02  0.1845E+00  0.1811E+00  0.5605E-44
REACH    1        0    60  0.2495E+02  0.1190E-02  0.1209E-01  0.1401E-44
REACH    2        0    60  0.5464E+02  0.1636E-01  0.1032E+00  0.2803E-44
REACH    3        0    60  0.1361E+02  0.1606E-01  0.4074E-01  0.4204E-44
REACH    4        0    60  0.9257E+02  0.1794E+00  0.1810E+00  0.5605E-44
REACH    1        0    61  0.2495E+02  0.1113E-02  0.1157E-01  0.1401E-44
REACH    2        0    61  0.5464E+02  0.1567E-01  0.9912E-01  0.2803E-44
REACH    3        0    61  0.1361E+02  0.1621E-01  0.3959E-01  0.4204E-44
REACH    4        0    61  0.9257E+02  0.1745E+00  0.1807E+00  0.5605E-44
REACH    1        0    62  0.2495E+02  0.1546E-01  0.1304E-01  0.1401E-44
REACH    2        0    62  0.5464E+02  0.3120E-01  0.9594E-01  0.2803E-44
REACH    3        0    62  0.1361E+02  0.1633E-01  0.3850E-01  0.4204E-44
REACH    4        0    62  0.9257E+02  0.1705E+00  0.1802E+00  0.5605E-44
REACH    1        0    63  0.2495E+02  0.1232E-02  0.1120E-01  0.1401E-44
REACH    2        0    63  0.5464E+02  0.1506E-01  0.9215E-01  0.2803E-44
REACH    3        0    63  0.1361E+02  0.1641E-01  0.3746E-01  0.4204E-44
REACH    4        0    63  0.9257E+02  0.1659E+00  0.1795E+00  0.5605E-44
REACH    1        0    64  0.2495E+02  0.1093E-02  0.1072E-01  0.1401E-44
REACH    2        0    64  0.5464E+02  0.1442E-01  0.8850E-01  0.2803E-44
REACH    3        0    64  0.1361E+02  0.1646E-01  0.3648E-01  0.4204E-44
REACH    4        0    64  0.9257E+02  0.1614E+00  0.1787E+00  0.5605E-44
REACH    1        0    65  0.2495E+02  0.1021E-02  0.1027E-01  0.1401E-44
REACH    2        0    65  0.5464E+02  0.1382E-01  0.8500E-01  0.2803E-44
REACH    3        0    65  0.1361E+02  0.1649E-01  0.3554E-01  0.4204E-44
REACH    4        0    65  0.9257E+02  0.1570E+00  0.1776E+00  0.5605E-44
REACH    1        0    66  0.2495E+02  0.5670E-01  0.5217E-01  0.1401E-44
REACH    2        0    66  0.5464E+02  0.1112E+00  0.8622E-01  0.2803E-44
REACH    3        0    66  0.1361E+02  0.9189E-01  0.3818E-01  0.4204E-44
REACH    4        0    66  0.9257E+02  0.2004E+00  0.1787E+00  0.5605E-44
REACH    1        0    67  0.2495E+02  0.1451E-02  0.1006E-01  0.1401E-44
REACH    2        0    67  0.5464E+02  0.1360E-01  0.8281E-01  0.2803E-44
REACH    3        0    67  0.1361E+02  0.9120E-01  0.4066E-01  0.4204E-44
REACH    4        0    67  0.9257E+02  0.1998E+00  0.1797E+00  0.5605E-44
REACH    1        0    68  0.2495E+02  0.1152E-02  0.9645E-02  0.1401E-44
REACH    2        0    68  0.5464E+02  0.1299E-01  0.7954E-01  0.2803E-44
REACH    3        0    68  0.1361E+02  0.1864E-01  0.3963E-01  0.4204E-44
REACH    4        0    68  0.9257E+02  0.1579E+00  0.1787E+00  0.5605E-44
REACH    1        0    69  0.2495E+02  0.2798E-02  0.9324E-02  0.1401E-44
REACH    2        0    69  0.5464E+02  0.1421E-01  0.7647E-01  0.2803E-44
REACH    3        0    69  0.1361E+02  0.1704E-01  0.3857E-01  0.4204E-44
REACH    4        0    69  0.9257E+02  0.1528E+00  0.1774E+00  0.5605E-44
REACH    1        0    70  0.2495E+02  0.1012E-02  0.8934E-02  0.1401E-44
REACH    2        0    70  0.5464E+02  0.1203E-01  0.7345E-01  0.2803E-44
REACH    3        0    70  0.1361E+02  0.1692E-01  0.3755E-01  0.4204E-44
REACH    4        0    70  0.9257E+02  0.1485E+00  0.1761E+00  0.5605E-44
REACH    1        0    71  0.2495E+02  0.9329E-03  0.8559E-02  0.1401E-44
REACH    2        0    71  0.5464E+02  0.1154E-01  0.7055E-01  0.2803E-44
REACH    3        0    71  0.1361E+02  0.1679E-01  0.3658E-01  0.4204E-44
REACH    4        0    71  0.9257E+02  0.1443E+00  0.1746E+00  0.5605E-44
REACH    1        0    72  0.2495E+02  0.8843E-03  0.8199E-02  0.1401E-44
REACH    2        0    72  0.5464E+02  0.1107E-01  0.6776E-01  0.2803E-44
REACH    3        0    72  0.1361E+02  0.2128E-01  0.3586E-01  0.4204E-44
REACH    4        0    72  0.9257E+02  0.1430E+00  0.1731E+00  0.5605E-44
REACH    1        0    73  0.2495E+02  0.8500E-03  0.7854E-02  0.1401E-44
REACH    2        0    73  0.5464E+02  0.1062E-01  0.6507E-01  0.2803E-44
REACH    3        0    73  0.1361E+02  0.8348E-01  0.3809E-01  0.4204E-44
REACH    4        0    73  0.9257E+02  0.1750E+00  0.1732E+00  0.5605E-44
REACH    1        0    74  0.2495E+02  0.8232E-03  0.7525E-02  0.1401E-44
REACH    2        0    74  0.5464E+02  0.1019E-01  0.6250E-01  0.2803E-44
REACH    3        0    74  0.1361E+02  0.1795E-01  0.3715E-01  0.4204E-44
REACH    4        0    74  0.9257E+02  0.1372E+00  0.1715E+00  0.5605E-44
REACH    1        0    75  0.2495E+02  0.8004E-03  0.7210E-02  0.1401E-44
REACH    2        0    75  0.5464E+02  0.9780E-02  0.6003E-01  0.2803E-44
REACH    3        0    75  0.1361E+02  0.1889E+00  0.4426E-01  0.4204E-44
REACH    4        0    75  0.9257E+02  0.2611E+00  0.1757E+00  0.5605E-44
REACH    1        0    76  0.2495E+02  0.7800E-03  0.6908E-02  0.1401E-44
REACH    2        0    76  0.5464E+02  0.9387E-02  0.5765E-01  0.2803E-44
REACH    3        0    76  0.1361E+02  0.1937E-01  0.4309E-01  0.4204E-44
REACH    4        0    76  0.9257E+02  0.1413E+00  0.1741E+00  0.5605E-44
REACH    1        0    77  0.2495E+02  0.3752E+00  0.2989E+00  0.1401E-44
REACH    2        0    77  0.5464E+02  0.6768E+00  0.8667E-01  0.2803E-44
REACH    3        0    77  0.1361E+02  0.1816E-01  0.4192E-01  0.4204E-44
REACH    4        0    77  0.9257E+02  0.1689E+00  0.1738E+00  0.5605E-44
REACH    1        0    78  0.2495E+02  0.1448E+01  0.1372E+01  0.1401E-44
REACH    2        0    78  0.5464E+02  0.2822E+01  0.5181E+00  0.2803E-44
REACH    3        0    78  0.1361E+02  0.1832E-01  0.4082E-01  0.4204E-44
REACH    4        0    78  0.9257E+02  0.5996E+00  0.1938E+00  0.5605E-44
REACH    1        0    79  0.2495E+02  0.1114E-01  0.1422E-01  0.1401E-44
REACH    2        0    79  0.5464E+02  0.2337E-01  0.1914E+00  0.2803E-44
REACH    3        0    79  0.1361E+02  0.1844E-01  0.3977E-01  0.4204E-44
REACH    4        0    79  0.9257E+02  0.2721E+00  0.1974E+00  0.5605E-44
REACH    1        0    80  0.2495E+02  0.1664E-01  0.1666E-01  0.1401E-44
REACH    2        0    80  0.5464E+02  0.3487E-01  0.1841E+00  0.2803E-44
REACH    3        0    80  0.1361E+02  0.1853E-01  0.3877E-01  0.4204E-44
REACH    4        0    80  0.9257E+02  0.2640E+00  0.2006E+00  0.5605E-44
REACH    1        0    81  0.2495E+02  0.3724E-02  0.1372E-01  0.1401E-44
REACH    2        0    81  0.5464E+02  0.2075E-01  0.1764E+00  0.2803E-44
REACH    3        0    81  0.1361E+02  0.1857E-01  0.3782E-01  0.4204E-44
REACH    4        0    81  0.9257E+02  0.2555E+00  0.2031E+00  0.5605E-44
REACH    1        0    82  0.2495E+02  0.2623E-02  0.1320E-01  0.1401E-44
REACH    2        0    82  0.5464E+02  0.1991E-01  0.1691E+00  0.2803E-44
REACH    3        0    82  0.1361E+02  0.1858E+00  0.4476E-01  0.4204E-44
REACH    4        0    82  0.9257E+02  0.3556E+00  0.2103E+00  0.5605E-44
REACH    1        0    83  0.2495E+02  0.2053E-02  0.1268E-01  0.1401E-44
REACH    2        0    83  0.5464E+02  0.1910E-01  0.1621E+00  0.2803E-44
REACH    3        0    83  0.1361E+02  0.1976E-01  0.4358E-01  0.4204E-44
REACH    4        0    83  0.9257E+02  0.2491E+00  0.2121E+00  0.5605E-44
REACH    1        0    84  0.2495E+02  0.1743E-02  0.1217E-01  0.1401E-44
REACH    2        0    84  0.5464E+02  0.1832E-01  0.1553E+00  0.2803E-44
REACH    3        0    84  0.1361E+02  0.1953E-01  0.4246E-01  0.4204E-44
REACH    4        0    84  0.9257E+02  0.2412E+00  0.2134E+00  0.5605E-44
REACH    1        0    85  0.2495E+02  0.1565E-02  0.1167E-01  0.1401E-44
REACH    2        0    85  0.5464E+02  0.1756E-01  0.1489E+00  0.2803E-44
REACH    3        0    85  0.1361E+02  0.1953E-01  0.4138E-01  0.4204E-44
REACH    4        0    85  0.9257E+02  0.2337E+00  0.2144E+00  0.5605E-44
REACH    1        0    86  0.2495E+02  0.1455E-02  0.1119E-01  0.1401E-44
REACH    2        0    86  0.5464E+02  0.1684E-01  0.1427E+00  0.2803E-44
REACH    3        0    86  0.1361E+02  0.2619E-01  0.4067E-01  0.4204E-44
REACH    4        0    86  0.9257E+02  0.2302E+00  0.2151E+00  0.5605E-44
REACH    1        0    87  0.2495E+02  0.1381E-02  0.1073E-01  0.1401E-44
REACH    2        0    87  0.5464E+02  0.1615E-01  0.1367E+00  0.2803E-44
REACH    3        0    87  0.1361E+02  0.2731E-01  0.4004E-01  0.4204E-44
REACH    4        0    87  0.9257E+02  0.2243E+00  0.2155E+00  0.5605E-44
REACH    1        0    88  0.2495E+02  0.1327E-02  0.1029E-01  0.1401E-44
REACH    2        0    88  0.5464E+02  0.1548E-01  0.1310E+00  0.2803E-44
REACH    3        0    88  0.1361E+02  0.1948E-01  0.3908E-01  0.4204E-44
REACH    4        0    88  0.9257E+02  0.2134E+00  0.2154E+00  0.5605E-44
REACH    1        0    89  0.2495E+02  0.1283E-02  0.9867E-02  0.1401E-44
REACH    2        0    89  0.5464E+02  0.1485E-01  0.1256E+00  0.2803E-44
REACH    3        0    89  0.1361E+02  0.1937E-01  0.3815E-01  0.4204E-44
REACH    4        0    89  0.9257E+02  0.2068E+00  0.2150E+00  0.5605E-44
REACH    1        0    90  0.2495E+02  0.8061E-02  0.9782E-02  0.1401E-44
REACH    2        0    90  0.5464E+02  0.2123E-01  0.1207E+00  0.2803E-44
REACH    3        0    90  0.1361E+02  0.9090E-01  0.4062E-01  0.4204E-44
REACH    4        0    90  0.9257E+02  0.2417E+00  0.2163E+00  0.5605E-44
REACH    1        0    91  0.2495E+02  0.1344E-02  0.9386E-02  0.1401E-44
REACH    2        0    91  0.5464E+02  0.1402E-01  0.1157E+00  0.2803E-44
REACH    3        0    91  0.1361E+02  0.1949E-01  0.3963E-01  0.4204E-44
REACH    4        0    91  0.9257E+02  0.1985E+00  0.2154E+00  0.5605E-44
REACH    1        0    92  0.2495E+02  0.1247E-02  0.9005E-02  0.1401E-44
REACH    2        0    92  0.5464E+02  0.1344E-01  0.1109E+00  0.2803E-44
REACH    3        0    92  0.1361E+02  0.1920E-01  0.3867E-01  0.4204E-44
REACH    4        0    92  0.9257E+02  0.1923E+00  0.2143E+00  0.5605E-44
REACH    1        0    93  0.2495E+02  0.1190E-02  0.8638E-02  0.1401E-44
REACH    2        0    93  0.5464E+02  0.1290E-01  0.1063E+00  0.2803E-44
REACH    3        0    93  0.1361E+02  0.1901E-01  0.3775E-01  0.4204E-44
REACH    4        0    93  0.9257E+02  0.1864E+00  0.2130E+00  0.5605E-44
REACH    1        0    94  0.2495E+02  0.1147E-02  0.8287E-02  0.1401E-44
REACH    2        0    94  0.5464E+02  0.1239E-01  0.1019E+00  0.2803E-44
REACH    3        0    94  0.1361E+02  0.1881E-01  0.3686E-01  0.4204E-44
REACH    4        0    94  0.9257E+02  0.1806E+00  0.2115E+00  0.5605E-44
REACH    1        0    95  0.2495E+02  0.1114E-02  0.7951E-02  0.1401E-44
REACH    2        0    95  0.5464E+02  0.1189E-01  0.9768E-01  0.2803E-44
REACH    3        0    95  0.1361E+02  0.1860E-01  0.3600E-01  0.4204E-44
REACH    4        0    95  0.9257E+02  0.1751E+00  0.2098E+00  0.5605E-44
REACH    1        0    96  0.2495E+02  0.1084E-02  0.7629E-02  0.1401E-44
REACH    2        0    96  0.5464E+02  0.1142E-01  0.9363E-01  0.2803E-44
REACH    3        0    96  0.1361E+02  0.1838E-01  0.3518E-01  0.4204E-44
REACH    4        0    96  0.9257E+02  0.1697E+00  0.2079E+00  0.5605E-44
REACH    1        0    97  0.2495E+02  0.1057E-02  0.7320E-02  0.1401E-44
REACH    2        0    97  0.5464E+02  0.1097E-01  0.8975E-01  0.2803E-44
REACH    3        0    97  0.1361E+02  0.2397E-01  0.3465E-01  0.4204E-44
REACH    4        0    97  0.9257E+02  0.1679E+00  0.2060E+00  0.5605E-44
REACH    1        0    98  0.2495E+02  0.1031E-02  0.7026E-02  0.1401E-44
REACH    2        0    98  0.5464E+02  0.1054E-01  0.8604E-01  0.2803E-44
REACH    3        0    98  0.1361E+02  0.1023E+00  0.3782E-01  0.4204E-44
REACH    4        0    98  0.9257E+02  0.2080E+00  0.2061E+00  0.5605E-44
REACH    1        0    99  0.2495E+02  0.1007E-02  0.6743E-02  0.1401E-44
REACH    2        0    99  0.5464E+02  0.1013E-01  0.8247E-01  0.2803E-44
REACH    3        0    99  0.1361E+02  0.1816E-01  0.3690E-01  0.4204E-44
REACH    4        0    99  0.9257E+02  0.1595E+00  0.2039E+00  0.5605E-44
REACH    1        0   100  0.2495E+02  0.9301E-01  0.8453E-01  0.1401E-44
REACH    2        0   100  0.5464E+02  0.1798E+00  0.8703E-01  0.2803E-44
REACH    3        0   100  0.1361E+02  0.1775E-01  0.3600E-01  0.4204E-44
REACH    4        0   100  0.9257E+02  0.1625E+00  0.2020E+00  0.5605E-44
REACH    1        0   101  0.2495E+02  0.1671E-02  0.6895E-02  0.1401E-44
REACH    2        0   101  0.5464E+02  0.1042E-01  0.8343E-01  0.2803E-44
REACH    3        0   101  0.1361E+02  0.1748E-01  0.3513E-01  0.4204E-44
REACH    4        0   101  0.9257E+02  0.1574E+00  0.1999E+00  0.5605E-44
REACH    1        0   102  0.2495E+02  0.1265E-02  0.6631E-02  0.1401E-44
REACH    2        0   102  0.5464E+02  0.9929E-02  0.7999E-01  0.2803E-44
REACH    3        0   102  0.1361E+02  0.1720E-01  0.3429E-01  0.4204E-44
REACH    4        0   102  0.9257E+02  0.1525E+00  0.1976E+00  0.5605E-44
REACH    1        0   103  0.2495E+02  0.2733E+00  0.1976E+00  0.1401E-44
REACH    2        0   103  0.5464E+02  0.4737E+00  0.9844E-01  0.2803E-44
REACH    3        0   103  0.1361E+02  0.2362E-01  0.3379E-01  0.4204E-44
REACH    4        0   103  0.9257E+02  0.1734E+00  0.1965E+00  0.5605E-44
REACH    1        0   104  0.2495E+02  0.2622E-02  0.9983E-02  0.1401E-44
REACH    2        0   104  0.5464E+02  0.1401E-01  0.9448E-01  0.2803E-44
REACH    3        0   104  0.1361E+02  0.1678E-01  0.3299E-01  0.4204E-44
REACH    4        0   104  0.9257E+02  0.1647E+00  0.1950E+00  0.5605E-44
REACH    1        0   105  0.2495E+02  0.1661E-02  0.9593E-02  0.1401E-44
REACH    2        0   105  0.5464E+02  0.1319E-01  0.9067E-01  0.2803E-44
REACH    3        0   105  0.1361E+02  0.1641E-01  0.3221E-01  0.4204E-44
REACH    4        0   105  0.9257E+02  0.1594E+00  0.1933E+00  0.5605E-44
REACH    1        0   106  0.2495E+02  0.4603E+00  0.3857E+00  0.1401E-44
REACH    2        0   106  0.5464E+02  0.8497E+00  0.1262E+00  0.2803E-44
REACH    3        0   106  0.1361E+02  0.1611E-01  0.3146E-01  0.4204E-44
REACH    4        0   106  0.9257E+02  0.1935E+00  0.1933E+00  0.5605E-44
REACH    1        0   107  0.2495E+02  0.3568E-02  0.1276E-01  0.1401E-44
REACH    2        0   107  0.5464E+02  0.1762E-01  0.1211E+00  0.2803E-44
REACH    3        0   107  0.1361E+02  0.1582E-01  0.3072E-01  0.4204E-44
REACH    4        0   107  0.9257E+02  0.1871E+00  0.1930E+00  0.5605E-44
REACH    1        0   108  0.2495E+02  0.2077E-02  0.1226E-01  0.1401E-44
REACH    2        0   108  0.5464E+02  0.1645E-01  0.1162E+00  0.2803E-44
REACH    3        0   108  0.1361E+02  0.1553E-01  0.3001E-01  0.4204E-44
REACH    4        0   108  0.9257E+02  0.1808E+00  0.1925E+00  0.5605E-44
REACH    1        0   109  0.2495E+02  0.1587E-02  0.1176E-01  0.1401E-44
REACH    2        0   109  0.5464E+02  0.1579E-01  0.1115E+00  0.2803E-44
REACH    3        0   109  0.1361E+02  0.1523E-01  0.2931E-01  0.4204E-44
REACH    4        0   109  0.9257E+02  0.1747E+00  0.1916E+00  0.5605E-44
REACH    1        0   110  0.2495E+02  0.1330E-02  0.1127E-01  0.1401E-44
REACH    2        0   110  0.5464E+02  0.1514E-01  0.1070E+00  0.2803E-44
REACH    3        0   110  0.1361E+02  0.1494E-01  0.2864E-01  0.4204E-44
REACH    4        0   110  0.9257E+02  0.1689E+00  0.1905E+00  0.5605E-44
REACH    1        0   111  0.2495E+02  0.1186E-02  0.1080E-01  0.1401E-44
REACH    2        0   111  0.5464E+02  0.1452E-01  0.1027E+00  0.2803E-44
REACH    3        0   111  0.1361E+02  0.1465E-01  0.2798E-01  0.4204E-44
REACH    4        0   111  0.9257E+02  0.1632E+00  0.1892E+00  0.5605E-44
REACH    1        0   112  0.2495E+02  0.1100E-02  0.1034E-01  0.1401E-44
REACH    2        0   112  0.5464E+02  0.1392E-01  0.9849E-01  0.2803E-44
REACH    3        0   112  0.1361E+02  0.1436E-01  0.2734E-01  0.4204E-44
REACH    4        0   112  0.9257E+02  0.1578E+00  0.1878E+00  0.5605E-44
REACH    1        0   113  0.2495E+02  0.1044E-02  0.9905E-02  0.1401E-44
REACH    2        0   113  0.5464E+02  0.1335E-01  0.9450E-01  0.2803E-44
REACH    3        0   113  0.1361E+02  0.1407E-01  0.2672E-01  0.4204E-44
REACH    4        0   113  0.9257E+02  0.1525E+00  0.1861E+00  0.5605E-44
REACH    1        0   114  0.2495E+02  0.1003E-02  0.9488E-02  0.1401E-44
REACH    2        0   114  0.5464E+02  0.1281E-01  0.9066E-01  0.2803E-44
REACH    3        0   114  0.1361E+02  0.1378E-01  0.2611E-01  0.4204E-44
REACH    4        0   114  0.9257E+02  0.1474E+00  0.1843E+00  0.5605E-44
REACH    1        0   115  0.2495E+02  0.9712E-03  0.9089E-02  0.1401E-44
REACH    2        0   115  0.5464E+02  0.1228E-01  0.8698E-01  0.2803E-44
REACH    3        0   115  0.1361E+02  0.1350E-01  0.2552E-01  0.4204E-44
REACH    4        0   115  0.9257E+02  0.1425E+00  0.1823E+00  0.5605E-44
REACH    1        0   116  0.2495E+02  0.9438E-03  0.8707E-02  0.1401E-44
REACH    2        0   116  0.5464E+02  0.1179E-01  0.8345E-01  0.2803E-44
REACH    3        0   116  0.1361E+02  0.1321E-01  0.2494E-01  0.4204E-44
REACH    4        0   116  0.9257E+02  0.1378E+00  0.1802E+00  0.5605E-44
REACH    1        0   117  0.2495E+02  0.9192E-03  0.8342E-02  0.1401E-44
REACH    2        0   117  0.5464E+02  0.1131E-01  0.8007E-01  0.2803E-44
REACH    3        0   117  0.1361E+02  0.1492E+00  0.3076E-01  0.4204E-44
REACH    4        0   117  0.9257E+02  0.2109E+00  0.1817E+00  0.5605E-44
REACH    1        0   118  0.2495E+02  0.8965E-03  0.7992E-02  0.1401E-44
REACH    2        0   118  0.5464E+02  0.1085E-01  0.7682E-01  0.2803E-44
REACH    3        0   118  0.1361E+02  0.1332E-01  0.2994E-01  0.4204E-44
REACH    4        0   118  0.9257E+02  0.1360E+00  0.1795E+00  0.5605E-44
REACH    1        0   119  0.2495E+02  0.8750E-03  0.7659E-02  0.1401E-44
REACH    2        0   119  0.5464E+02  0.1042E-01  0.7370E-01  0.2803E-44
REACH    3        0   119  0.1361E+02  0.1281E-01  0.2914E-01  0.4204E-44
REACH    4        0   119  0.9257E+02  0.1313E+00  0.1772E+00  0.5605E-44
REACH    1        0   120  0.2495E+02  0.8543E-03  0.7340E-02  0.1401E-44
REACH    2        0   120  0.5464E+02  0.1000E-01  0.7071E-01  0.2803E-44
REACH    3        0   120  0.1361E+02  0.1252E-01  0.2836E-01  0.4204E-44
REACH    4        0   120  0.9257E+02  0.1269E+00  0.1749E+00  0.5605E-44
REACH    1        0   121  0.2495E+02  0.8344E-03  0.7035E-02  0.1401E-44
REACH    2        0   121  0.5464E+02  0.9602E-02  0.6785E-01  0.2803E-44
REACH    3        0   121  0.1361E+02  0.2353E-01  0.2813E-01  0.4204E-44
REACH    4        0   121  0.9257E+02  0.1291E+00  0.1727E+00  0.5605E-44
REACH    1        0   122  0.2495E+02  0.8151E-03  0.6743E-02  0.1401E-44
REACH    2        0   122  0.5464E+02  0.9222E-02  0.6510E-01  0.2803E-44
REACH    3        0   122  0.1361E+02  0.1202E-01  0.2737E-01  0.4204E-44
REACH    4        0   122  0.9257E+02  0.1192E+00  0.1702E+00  0.5605E-44
REACH    1        0   123  0.2495E+02  0.7963E-03  0.6464E-02  0.1401E-44
REACH    2        0   123  0.5464E+02  0.8858E-02  0.6246E-01  0.2803E-44
REACH    3        0   123  0.1361E+02  0.1172E-01  0.2664E-01  0.4204E-44
REACH    4        0   123  0.9257E+02  0.1151E+00  0.1676E+00  0.5605E-44
REACH    1        0   124  0.2495E+02  0.7780E-03  0.6198E-02  0.1401E-44
REACH    2        0   124  0.5464E+02  0.8510E-02  0.5992E-01  0.2803E-44
REACH    3        0   124  0.1361E+02  0.1144E-01  0.2593E-01  0.4204E-44
REACH    4        0   124  0.9257E+02  0.1113E+00  0.1650E+00  0.5605E-44
REACH    1        0   125  0.2495E+02  0.7602E-03  0.5943E-02  0.1401E-44
REACH    2        0   125  0.5464E+02  0.8177E-02  0.5750E-01  0.2803E-44
REACH    3        0   125  0.1361E+02  0.1117E-01  0.2523E-01  0.4204E-44
REACH    4        0   125  0.9257E+02  0.1076E+00  0.1623E+00  0.5605E-44
REACH    1        0   126  0.2495E+02  0.7428E-03  0.5699E-02  0.1401E-44
REACH    2        0   126  0.5464E+02  0.7858E-02  0.5516E-01  0.2803E-44
REACH    3        0   126  0.1361E+02  0.1091E-01  0.2456E-01  0.4204E-44
REACH    4        0   126  0.9257E+02  0.1040E+00  0.1595E+00  0.5605E-44
REACH    1        0   127  0.2495E+02  0.7258E-03  0.5465E-02  0.1401E-44
REACH    2        0   127  0.5464E+02  0.7553E-02  0.5293E-01  0.2803E-44
REACH    3        0   127  0.1361E+02  0.1539E+00  0.3062E-01  0.4204E-44
REACH    4        0   127  0.9257E+02  0.1822E+00  0.1606E+00  0.5605E-44
REACH    1        0   128  0.2495E+02  0.7092E-03  0.5242E-02  0.1401E-44
REACH    2        0   128  0.5464E+02  0.7262E-02  0.5078E-01  0.2803E-44
REACH    3        0   128  0.1361E+02  0.1109E-01  0.2971E-01  0.4204E-44
REACH    4        0   128  0.9257E+02  0.1047E+00  0.1580E+00  0.5605E-44
REACH    1        0   129  0.2495E+02  0.6930E-03  0.5029E-02  0.1401E-44
REACH    2        0   129  0.5464E+02  0.6982E-02  0.4872E-01  0.2803E-44
REACH    3        0   129  0.1361E+02  0.1059E-01  0.2881E-01  0.4204E-44
REACH    4        0   129  0.9257E+02  0.1010E+00  0.1553E+00  0.5605E-44
REACH    1        0   130  0.2495E+02  0.6772E-03  0.4825E-02  0.1401E-44
REACH    2        0   130  0.5464E+02  0.6715E-02  0.4675E-01  0.2803E-44
REACH    3        0   130  0.1361E+02  0.1032E-01  0.2794E-01  0.4204E-44
REACH    4        0   130  0.9257E+02  0.9760E-01  0.1526E+00  0.5605E-44
REACH    1        0   131  0.2495E+02  0.6617E-03  0.4629E-02  0.1401E-44
REACH    2        0   131  0.5464E+02  0.6459E-02  0.4486E-01  0.2803E-44
REACH    3        0   131  0.1361E+02  0.1005E-01  0.2710E-01  0.4204E-44
REACH    4        0   131  0.9257E+02  0.9428E-01  0.1498E+00  0.5605E-44
REACH    1        0   132  0.2495E+02  0.6466E-03  0.4442E-02  0.1401E-44
REACH    2        0   132  0.5464E+02  0.6214E-02  0.4304E-01  0.2803E-44
REACH    3        0   132  0.1361E+02  0.9796E-02  0.2629E-01  0.4204E-44
REACH    4        0   132  0.9257E+02  0.9108E-01  0.1471E+00  0.5605E-44
REACH    1        0   133  0.2495E+02  0.5092E+00  0.4296E+00  0.1401E-44
REACH    2        0   133  0.5464E+02  0.9378E+00  0.8497E-01  0.2803E-44
REACH    3        0   133  0.1361E+02  0.9544E-02  0.2550E-01  0.4204E-44
REACH    4        0   133  0.9257E+02  0.1317E+00  0.1463E+00  0.5605E-44
REACH    1        0   134  0.2495E+02  0.3251E-02  0.8079E-02  0.1401E-44
REACH    2        0   134  0.5464E+02  0.1129E-01  0.8151E-01  0.2803E-44
REACH    3        0   134  0.1361E+02  0.9299E-02  0.2474E-01  0.4204E-44
REACH    4        0   134  0.9257E+02  0.1269E+00  0.1454E+00  0.5605E-44
REACH    1        0   135  0.2495E+02  0.1712E-02  0.7781E-02  0.1401E-44
REACH    2        0   135  0.5464E+02  0.1035E-01  0.7817E-01  0.2803E-44
REACH    3        0   135  0.1361E+02  0.9058E-02  0.2400E-01  0.4204E-44
REACH    4        0   135  0.9257E+02  0.1223E+00  0.1443E+00  0.5605E-44
REACH    1        0   136  0.2495E+02  0.1234E-02  0.7474E-02  0.1401E-44
REACH    2        0   136  0.5464E+02  0.9952E-02  0.7497E-01  0.2803E-44
REACH    3        0   136  0.1361E+02  0.8849E-02  0.2329E-01  0.4204E-44
REACH    4        0   136  0.9257E+02  0.1179E+00  0.1431E+00  0.5605E-44
REACH    1        0   137  0.2495E+02  0.2272E+00  0.2181E+00  0.1401E-44
REACH    2        0   137  0.5464E+02  0.4443E+00  0.9227E-01  0.2803E-44
REACH    3        0   137  0.1361E+02  0.8595E-02  0.2260E-01  0.4204E-44
REACH    4        0   137  0.9257E+02  0.1340E+00  0.1426E+00  0.5605E-44
REACH    1        0   138  0.2495E+02  0.2241E-02  0.7650E-02  0.1401E-44
REACH    2        0   138  0.5464E+02  0.1069E-01  0.8845E-01  0.2803E-44
REACH    3        0   138  0.1361E+02  0.8371E-02  0.2193E-01  0.4204E-44
REACH    4        0   138  0.9257E+02  0.1290E+00  0.1420E+00  0.5605E-44
REACH    1        0   139  0.2495E+02  0.1386E-02  0.7356E-02  0.1401E-44
REACH    2        0   139  0.5464E+02  0.1006E-01  0.8477E-01  0.2803E-44
REACH    3        0   139  0.1361E+02  0.8152E-02  0.2129E-01  0.4204E-44
REACH    4        0   139  0.9257E+02  0.1241E+00  0.1412E+00  0.5605E-44
REACH    1        0   140  0.2495E+02  0.1547E-02  0.7084E-02  0.1401E-44
REACH    2        0   140  0.5464E+02  0.9991E-02  0.8126E-01  0.2803E-44
REACH    3        0   140  0.1361E+02  0.1285E+00  0.2631E-01  0.4204E-44
REACH    4        0   140  0.9257E+02  0.1883E+00  0.1434E+00  0.5605E-44
REACH    1        0   141  0.2495E+02  0.9507E-03  0.6796E-02  0.1401E-44
REACH    2        0   141  0.5464E+02  0.9299E-02  0.7789E-01  0.2803E-44
REACH    3        0   141  0.1361E+02  0.2003E-01  0.2601E-01  0.4204E-44
REACH    4        0   141  0.9257E+02  0.1281E+00  0.1426E+00  0.5605E-44
REACH    1        0   142  0.2495E+02  0.8445E-03  0.6517E-02  0.1401E-44
REACH    2        0   142  0.5464E+02  0.8928E-02  0.7465E-01  0.2803E-44
REACH    3        0   142  0.1361E+02  0.8001E-02  0.2517E-01  0.4204E-44
REACH    4        0   142  0.9257E+02  0.1175E+00  0.1414E+00  0.5605E-44
REACH    1        0   143  0.2495E+02  0.7818E-03  0.6248E-02  0.1401E-44
REACH    2        0   143  0.5464E+02  0.8572E-02  0.7155E-01  0.2803E-44
REACH    3        0   143  0.1361E+02  0.7762E-02  0.2435E-01  0.4204E-44
REACH    4        0   143  0.9257E+02  0.1131E+00  0.1401E+00  0.5605E-44
REACH    1        0   144  0.2495E+02  0.2902E-01  0.2119E-01  0.1401E-44
REACH    2        0   144  0.5464E+02  0.5024E-01  0.7055E-01  0.2803E-44
REACH    3        0   144  0.1361E+02  0.7547E-02  0.2356E-01  0.4204E-44
REACH    4        0   144  0.9257E+02  0.1108E+00  0.1387E+00  0.5605E-44
REACH    1        0   145  0.2495E+02  0.1045E-02  0.6367E-02  0.1401E-44
REACH    2        0   145  0.5464E+02  0.8604E-02  0.6764E-01  0.2803E-44
REACH    3        0   145  0.1361E+02  0.7338E-02  0.2280E-01  0.4204E-44
REACH    4        0   145  0.9257E+02  0.1067E+00  0.1372E+00  0.5605E-44
REACH    1        0   146  0.2495E+02  0.8481E-03  0.6108E-02  0.1401E-44
REACH    2        0   146  0.5464E+02  0.8241E-02  0.6485E-01  0.2803E-44
REACH    3        0   146  0.1361E+02  0.7135E-02  0.2206E-01  0.4204E-44
REACH    4        0   146  0.9257E+02  0.1027E+00  0.1356E+00  0.5605E-44
REACH    1        0   147  0.2495E+02  0.7588E-03  0.5857E-02  0.1401E-44
REACH    2        0   147  0.5464E+02  0.7915E-02  0.6217E-01  0.2803E-44
REACH    3        0   147  0.1361E+02  0.6937E-02  0.2135E-01  0.4204E-44
REACH    4        0   147  0.9257E+02  0.9889E-01  0.1339E+00  0.5605E-44
REACH    1        0   148  0.2495E+02  0.7064E-03  0.5615E-02  0.1401E-44
REACH    2        0   148  0.5464E+02  0.7603E-02  0.5961E-01  0.2803E-44
REACH    3        0   148  0.1361E+02  0.6744E-02  0.2067E-01  0.4204E-44
REACH    4        0   148  0.9257E+02  0.9522E-01  0.1320E+00  0.5605E-44
REACH    1        0   149  0.2495E+02  0.6723E-03  0.5383E-02  0.1401E-44
REACH    2        0   149  0.5464E+02  0.7303E-02  0.5715E-01  0.2803E-44
REACH    3        0   149  0.1361E+02  0.6557E-02  0.2000E-01  0.4204E-44
REACH    4        0   149  0.9257E+02  0.9168E-01  0.1301E+00  0.5605E-44
REACH    1        0   150  0.2495E+02  0.6476E-03  0.5161E-02  0.1401E-44
REACH    2        0   150  0.5464E+02  0.7015E-02  0.5480E-01  0.2803E-44
REACH    3        0   150  0.1361E+02  0.6375E-02  0.1936E-01  0.4204E-44
REACH    4        0   150  0.9257E+02  0.8828E-01  0.1282E+00  0.5605E-44
REACH    1        0   151  0.2495E+02  0.1611E+00  0.1504E+00  0.1401E-44
REACH    2        0   151  0.5464E+02  0.3109E+00  0.6680E-01  0.2803E-44
REACH    3        0   151  0.1361E+02  0.6198E-02  0.1874E-01  0.4204E-44
REACH    4        0   151  0.9257E+02  0.9927E-01  0.1268E+00  0.5605E-44
REACH    1        0   152  0.2495E+02  0.3492E+00  0.2717E+00  0.1401E-44
REACH    2        0   152  0.5464E+02  0.6203E+00  0.9274E-01  0.2803E-44
REACH    3        0   152  0.1361E+02  0.6025E-02  0.1815E-01  0.4204E-44
REACH    4        0   152  0.9257E+02  0.1242E+00  0.1267E+00  0.5605E-44
REACH    1        0   153  0.2495E+02  0.3108E-02  0.9166E-02  0.1401E-44
REACH    2        0   153  0.5464E+02  0.1229E-01  0.8896E-01  0.2803E-44
REACH    3        0   153  0.1361E+02  0.8345E-01  0.2121E-01  0.4204E-44
REACH    4        0   153  0.9257E+02  0.1637E+00  0.1284E+00  0.5605E-44
REACH    1        0   154  0.2495E+02  0.1745E-02  0.8818E-02  0.1401E-44
REACH    2        0   154  0.5464E+02  0.1147E-01  0.8532E-01  0.2803E-44
REACH    3        0   154  0.1361E+02  0.3979E-01  0.2208E-01  0.4204E-44
REACH    4        0   154  0.9257E+02  0.1382E+00  0.1289E+00  0.5605E-44
REACH    1        0   155  0.2495E+02  0.1261E-02  0.8463E-02  0.1401E-44
REACH    2        0   155  0.5464E+02  0.1102E-01  0.8183E-01  0.2803E-44
REACH    3        0   155  0.1361E+02  0.5978E-02  0.2132E-01  0.4204E-44
REACH    4        0   155  0.9257E+02  0.1163E+00  0.1283E+00  0.5605E-44
REACH    1        0   156  0.2495E+02  0.1112E+01  0.1034E+01  0.1401E-44
REACH    2        0   156  0.5464E+02  0.2151E+01  0.1788E+00  0.2803E-44
REACH    3        0   156  0.1361E+02  0.3976E-01  0.2218E-01  0.4204E-44
REACH    4        0   156  0.9257E+02  0.2314E+00  0.1331E+00  0.5605E-44
REACH    1        0   157  0.2495E+02  0.6029E-02  0.1196E-01  0.1401E-44
REACH    2        0   157  0.5464E+02  0.1761E-01  0.1712E+00  0.2803E-44
REACH    3        0   157  0.1361E+02  0.1123E+00  0.2641E-01  0.4204E-44
REACH    4        0   157  0.9257E+02  0.2659E+00  0.1393E+00  0.5605E-44
REACH    1        0   158  0.2495E+02  0.8525E-02  0.1180E-01  0.1401E-44
REACH    2        0   158  0.5464E+02  0.2128E-01  0.1642E+00  0.2803E-44
REACH    3        0   158  0.1361E+02  0.6078E-02  0.2545E-01  0.4204E-44
REACH    4        0   158  0.9257E+02  0.2027E+00  0.1423E+00  0.5605E-44
REACH    1        0   159  0.2495E+02  0.4862E-02  0.1147E-01  0.1401E-44
REACH    2        0   159  0.5464E+02  0.1795E-01  0.1573E+00  0.2803E-44
REACH    3        0   159  0.1361E+02  0.5729E-02  0.2453E-01  0.4204E-44
REACH    4        0   159  0.9257E+02  0.1945E+00  0.1447E+00  0.5605E-44
REACH    1        0   160  0.2495E+02  0.4010E+00  0.3288E+00  0.1401E-44
REACH    2        0   160  0.5464E+02  0.7324E+00  0.1843E+00  0.2803E-44
REACH    3        0   160  0.1361E+02  0.5553E-02  0.2363E-01  0.4204E-44
REACH    4        0   160  0.9257E+02  0.2202E+00  0.1482E+00  0.5605E-44
REACH    1        0   161  0.2495E+02  0.3685E-02  0.1446E-01  0.1401E-44
REACH    2        0   161  0.5464E+02  0.1969E-01  0.1766E+00  0.2803E-44
REACH    3        0   161  0.1361E+02  0.5384E-02  0.2278E-01  0.4204E-44
REACH    4        0   161  0.9257E+02  0.2112E+00  0.1512E+00  0.5605E-44
REACH    1        0   162  0.2495E+02  0.2217E-02  0.1389E-01  0.1401E-44
REACH    2        0   162  0.5464E+02  0.1849E-01  0.1692E+00  0.2803E-44
REACH    3        0   162  0.1361E+02  0.5220E-02  0.2195E-01  0.4204E-44
REACH    4        0   162  0.9257E+02  0.2026E+00  0.1536E+00  0.5605E-44
REACH    1        0   163  0.2495E+02  0.1702E-02  0.1331E-01  0.1401E-44
REACH    2        0   163  0.5464E+02  0.1773E-01  0.1621E+00  0.2803E-44
REACH    3        0   163  0.1361E+02  0.2932E-01  0.2230E-01  0.4204E-44
REACH    4        0   163  0.9257E+02  0.2081E+00  0.1561E+00  0.5605E-44
REACH    1        0   164  0.2495E+02  0.2121E+01  0.2045E+01  0.1401E-44
REACH    2        0   164  0.5464E+02  0.4170E+01  0.1417E+01  0.2803E-44
REACH    3        0   164  0.1361E+02  0.5031E-02  0.2149E-01  0.4204E-44
REACH    4        0   164  0.9257E+02  0.1449E+01  0.2167E+00  0.5605E-44
REACH    1        0   165  0.2495E+02  0.1400E-01  0.1686E-01  0.1401E-44
REACH    2        0   165  0.5464E+02  0.2911E-01  0.2837E+00  0.2803E-44
REACH    3        0   165  0.1361E+02  0.4840E-02  0.2070E-01  0.4204E-44
REACH    4        0   165  0.9257E+02  0.3151E+00  0.2213E+00  0.5605E-44
REACH    1        0   166  0.2495E+02  0.6787E-02  0.1639E-01  0.1401E-44
REACH    2        0   166  0.5464E+02  0.2594E-01  0.2717E+00  0.2803E-44
REACH    3        0   166  0.1361E+02  0.4693E-02  0.1995E-01  0.4204E-44
REACH    4        0   166  0.9257E+02  0.3019E+00  0.2251E+00  0.5605E-44
REACH    1        0   167  0.2495E+02  0.2263E-01  0.2460E-01  0.1401E-44
REACH    2        0   167  0.5464E+02  0.5146E-01  0.2613E+00  0.2803E-44
REACH    3        0   167  0.1361E+02  0.4551E-02  0.1923E-01  0.4204E-44
REACH    4        0   167  0.9257E+02  0.2906E+00  0.2281E+00  0.5605E-44
REACH    1        0   168  0.2495E+02  0.1955E+00  0.1951E+00  0.1401E-44
REACH    2        0   168  0.5464E+02  0.3955E+00  0.2676E+00  0.2803E-44
REACH    3        0   168  0.1361E+02  0.1623E+00  0.2593E-01  0.4204E-44
REACH    4        0   168  0.9257E+02  0.3855E+00  0.2355E+00  0.5605E-44
REACH    1        0   169  0.2495E+02  0.1201E+01  0.1131E+01  0.1401E-44
REACH    2        0   169  0.5464E+02  0.2337E+01  0.4180E+00  0.2803E-44
REACH    3        0   169  0.1361E+02  0.6500E-01  0.2776E-01  0.4204E-44
REACH    4        0   169  0.9257E+02  0.4875E+00  0.2473E+00  0.5605E-44
REACH    1        0   170  0.2495E+02  0.1168E-01  0.1935E-01  0.1401E-44
REACH    2        0   170  0.5464E+02  0.3280E-01  0.3456E+00  0.2803E-44
REACH    3        0   170  0.1361E+02  0.4940E-02  0.2669E-01  0.4204E-44
REACH    4        0   170  0.9257E+02  0.3829E+00  0.2537E+00  0.5605E-44
REACH    1        0   171  0.2495E+02  0.3005E-01  0.3461E-01  0.1401E-44
REACH    2        0   171  0.5464E+02  0.6929E-01  0.3326E+00  0.2803E-44
REACH    3        0   171  0.1361E+02  0.4688E-02  0.2566E-01  0.4204E-44
REACH    4        0   171  0.9257E+02  0.3686E+00  0.2590E+00  0.5605E-44
REACH    1        0   172  0.2495E+02  0.1448E+00  0.1475E+00  0.1401E-44
REACH    2        0   172  0.5464E+02  0.2982E+00  0.3310E+00  0.2803E-44
REACH    3        0   172  0.1361E+02  0.4535E-02  0.2466E-01  0.4204E-44
REACH    4        0   172  0.9257E+02  0.3656E+00  0.2640E+00  0.5605E-44
REACH    1        0   173  0.2495E+02  0.4671E-02  0.1831E-01  0.1401E-44
REACH    2        0   173  0.5464E+02  0.2946E-01  0.3169E+00  0.2803E-44
REACH    3        0   173  0.1361E+02  0.4388E-02  0.2371E-01  0.4204E-44
REACH    4        0   173  0.9257E+02  0.3502E+00  0.2681E+00  0.5605E-44
REACH    1        0   174  0.2495E+02  0.3526E-02  0.1761E-01  0.1401E-44
REACH    2        0   174  0.5464E+02  0.2816E-01  0.3033E+00  0.2803E-44
REACH    3        0   174  0.1361E+02  0.4247E-02  0.2280E-01  0.4204E-44
REACH    4        0   174  0.9257E+02  0.3355E+00  0.2712E+00  0.5605E-44
REACH    1        0   175  0.2495E+02  0.2998E-02  0.1693E-01  0.1401E-44
REACH    2        0   175  0.5464E+02  0.2703E-01  0.2904E+00  0.2803E-44
REACH    3        0   175  0.1361E+02  0.7839E-01  0.2540E-01  0.4204E-44
REACH    4        0   175  0.9257E+02  0.3634E+00  0.2755E+00  0.5605E-44
REACH    1        0   176  0.2495E+02  0.2880E+01  0.2806E+01  0.1401E-44
REACH    2        0   176  0.5464E+02  0.5629E+01  0.2581E+01  0.2803E-44
REACH    3        0   176  0.1361E+02  0.3829E-01  0.2601E-01  0.4204E-44
REACH    4        0   176  0.9257E+02  0.2633E+01  0.3860E+00  0.5605E-44
REACH    1        0   177  0.2495E+02  0.1696E+01  0.1628E+01  0.1401E-44
REACH    2        0   177  0.5464E+02  0.3232E+01  0.1739E+01  0.2803E-44
REACH    3        0   177  0.1361E+02  0.4296E-02  0.2499E-01  0.4204E-44
REACH    4        0   177  0.9257E+02  0.1773E+01  0.4510E+00  0.5605E-44
REACH    1        0   178  0.2495E+02  0.2233E-01  0.3138E-01  0.1401E-44
REACH    2        0   178  0.5464E+02  0.5445E-01  0.4901E+00  0.2803E-44
REACH    3        0   178  0.1361E+02  0.7098E-01  0.2714E-01  0.4204E-44
REACH    4        0   178  0.9257E+02  0.5610E+00  0.4562E+00  0.5605E-44
REACH    1        0   179  0.2495E+02  0.1234E-01  0.2285E-01  0.1401E-44
REACH    2        0   179  0.5464E+02  0.4327E-01  0.4692E+00  0.2803E-44
REACH    3        0   179  0.1361E+02  0.4319E-02  0.2607E-01  0.4204E-44
REACH    4        0   179  0.9257E+02  0.5045E+00  0.4584E+00  0.5605E-44
REACH    1        0   180  0.2495E+02  0.8349E-02  0.2217E-01  0.1401E-44
REACH    2        0   180  0.5464E+02  0.4169E-01  0.4492E+00  0.2803E-44
REACH    3        0   180  0.1361E+02  0.1215E+00  0.3054E-01  0.4204E-44
REACH    4        0   180  0.9257E+02  0.5497E+00  0.4627E+00  0.5605E-44
REACH    1        0   181  0.2495E+02  0.6301E-02  0.2143E-01  0.1401E-44
REACH    2        0   181  0.5464E+02  0.4009E-01  0.4300E+00  0.2803E-44
REACH    3        0   181  0.1361E+02  0.4517E-02  0.2932E-01  0.4204E-44
REACH    4        0   181  0.9257E+02  0.4688E+00  0.4630E+00  0.5605E-44
REACH    1        0   182  0.2495E+02  0.5207E-02  0.2067E-01  0.1401E-44
REACH    2        0   182  0.5464E+02  0.3853E-01  0.4116E+00  0.2803E-44
REACH    3        0   182  0.1361E+02  0.1040E-01  0.2844E-01  0.4204E-44
REACH    4        0   182  0.9257E+02  0.4522E+00  0.4625E+00  0.5605E-44
REACH    1        0   183  0.2495E+02  0.4593E-02  0.1991E-01  0.1401E-44
REACH    2        0   183  0.5464E+02  0.3701E-01  0.3941E+00  0.2803E-44
REACH    3        0   183  0.1361E+02  0.2582E-01  0.2831E-01  0.4204E-44
REACH    4        0   183  0.9257E+02  0.4424E+00  0.4615E+00  0.5605E-44
REACH    1        0   184  0.2495E+02  0.4224E-02  0.1918E-01  0.1401E-44
REACH    2        0   184  0.5464E+02  0.3555E-01  0.3773E+00  0.2803E-44
REACH    3        0   184  0.1361E+02  0.4072E-02  0.2717E-01  0.4204E-44
REACH    4        0   184  0.9257E+02  0.4133E+00  0.4592E+00  0.5605E-44
REACH    1        0   185  0.2495E+02  0.3985E-02  0.1847E-01  0.1401E-44
REACH    2        0   185  0.5464E+02  0.3414E-01  0.3612E+00  0.2803E-44
REACH    3        0   185  0.1361E+02  0.3899E-02  0.2608E-01  0.4204E-44
REACH    4        0   185  0.9257E+02  0.3958E+00  0.4563E+00  0.5605E-44
REACH    1        0   186  0.2495E+02  0.3815E-02  0.1778E-01  0.1401E-44
REACH    2        0   186  0.5464E+02  0.3280E-01  0.3458E+00  0.2803E-44
REACH    3        0   186  0.1361E+02  0.3765E-02  0.2503E-01  0.4204E-44
REACH    4        0   186  0.9257E+02  0.3790E+00  0.4526E+00  0.5605E-44
REACH    1        0   187  0.2495E+02  0.3683E-02  0.1712E-01  0.1401E-44
REACH    2        0   187  0.5464E+02  0.3152E-01  0.3311E+00  0.2803E-44
REACH    3        0   187  0.1361E+02  0.1458E-01  0.2454E-01  0.4204E-44
REACH    4        0   187  0.9257E+02  0.3690E+00  0.4487E+00  0.5605E-44
REACH    1        0   188  0.2495E+02  0.3573E-02  0.1648E-01  0.1401E-44
REACH    2        0   188  0.5464E+02  0.3030E-01  0.3170E+00  0.2803E-44
REACH    3        0   188  0.1361E+02  0.3565E-02  0.2356E-01  0.4204E-44
REACH    4        0   188  0.9257E+02  0.3482E+00  0.4440E+00  0.5605E-44
REACH    1        0   189  0.2495E+02  0.3476E-02  0.1587E-01  0.1401E-44
REACH    2        0   189  0.5464E+02  0.2913E-01  0.3035E+00  0.2803E-44
REACH    3        0   189  0.1361E+02  0.3428E-02  0.2261E-01  0.4204E-44
REACH    4        0   189  0.9257E+02  0.3335E+00  0.4388E+00  0.5605E-44
REACH    1        0   190  0.2495E+02  0.3387E-02  0.1529E-01  0.1401E-44
REACH    2        0   190  0.5464E+02  0.2801E-01  0.2905E+00  0.2803E-44
REACH    3        0   190  0.1361E+02  0.3313E-02  0.2171E-01  0.4204E-44
REACH    4        0   190  0.9257E+02  0.3195E+00  0.4332E+00  0.5605E-44
REACH    1        0   191  0.2495E+02  0.3304E-02  0.1473E-01  0.1401E-44
REACH    2        0   191  0.5464E+02  0.2694E-01  0.2782E+00  0.2803E-44
REACH    3        0   191  0.1361E+02  0.2014E+00  0.3012E-01  0.4204E-44
REACH    4        0   191  0.9257E+02  0.4185E+00  0.4325E+00  0.5605E-44
REACH    1        0   192  0.2495E+02  0.3225E-02  0.1419E-01  0.1401E-44
REACH    2        0   192  0.5464E+02  0.2592E-01  0.2664E+00  0.2803E-44
REACH    3        0   192  0.1361E+02  0.1516E-01  0.2942E-01  0.4204E-44
REACH    4        0   192  0.9257E+02  0.3095E+00  0.4267E+00  0.5605E-44
REACH    1        0   193  0.2495E+02  0.3148E-02  0.1367E-01  0.1401E-44
REACH    2        0   193  0.5464E+02  0.2494E-01  0.2550E+00  0.2803E-44
REACH    3        0   193  0.1361E+02  0.7560E-02  0.2840E-01  0.4204E-44
REACH    4        0   193  0.9257E+02  0.2933E+00  0.4205E+00  0.5605E-44
REACH    1        0   194  0.2495E+02  0.3074E-02  0.1317E-01  0.1401E-44
REACH    2        0   194  0.5464E+02  0.2400E-01  0.2442E+00  0.2803E-44
REACH    3        0   194  0.1361E+02  0.1099E-01  0.2758E-01  0.4204E-44
REACH    4        0   194  0.9257E+02  0.2832E+00  0.4140E+00  0.5605E-44
REACH    1        0   195  0.2495E+02  0.3002E-02  0.1270E-01  0.1401E-44
REACH    2        0   195  0.5464E+02  0.2311E-01  0.2338E+00  0.2803E-44
REACH    3        0   195  0.1361E+02  0.3488E-02  0.2645E-01  0.4204E-44
REACH    4        0   195  0.9257E+02  0.2678E+00  0.4072E+00  0.5605E-44
REACH    1        0   196  0.2495E+02  0.2932E-02  0.1224E-01  0.1401E-44
REACH    2        0   196  0.5464E+02  0.2226E-01  0.2239E+00  0.2803E-44
REACH    3        0   196  0.1361E+02  0.3354E-02  0.2536E-01  0.4204E-44
REACH    4        0   196  0.9257E+02  0.2566E+00  0.4001E+00  0.5605E-44
REACH    1        0   197  0.2495E+02  0.2864E-02  0.1180E-01  0.1401E-44
REACH    2        0   197  0.5464E+02  0.2144E-01  0.2144E+00  0.2803E-44
REACH    3        0   197  0.1361E+02  0.1988E-01  0.2511E-01  0.4204E-44
REACH    4        0   197  0.9257E+02  0.2549E+00  0.3933E+00  0.5605E-44
REACH    1        0   198  0.2495E+02  0.2798E-02  0.1138E-01  0.1401E-44
REACH    2        0   198  0.5464E+02  0.2066E-01  0.2053E+00  0.2803E-44
REACH    3        0   198  0.1361E+02  0.3210E-02  0.2408E-01  0.4204E-44
REACH    4        0   198  0.9257E+02  0.2363E+00  0.3859E+00  0.5605E-44
REACH    1        0   199  0.2495E+02  0.2733E-02  0.1097E-01  0.1401E-44
REACH    2        0   199  0.5464E+02  0.1991E-01  0.1966E+00  0.2803E-44
REACH    3        0   199  0.1361E+02  0.3073E-02  0.2309E-01  0.4204E-44
REACH    4        0   199  0.9257E+02  0.2264E+00  0.3784E+00  0.5605E-44
REACH    1        0   200  0.2495E+02  0.4868E+00  0.4134E+00  0.1401E-44
REACH    2        0   200  0.5464E+02  0.9071E+00  0.2299E+00  0.2803E-44
REACH    3        0   200  0.1361E+02  0.1961E+00  0.3120E-01  0.4204E-44
REACH    4        0   200  0.9257E+02  0.3681E+00  0.3779E+00  0.5605E-44
REACH    1        0   201  0.2495E+02  0.5120E-02  0.1409E-01  0.1401E-44
REACH    2        0   201  0.5464E+02  0.2384E-01  0.2203E+00  0.2803E-44
REACH    3        0   201  0.1361E+02  0.3766E-02  0.2991E-01  0.4204E-44
REACH    4        0   201  0.9257E+02  0.2578E+00  0.3723E+00  0.5605E-44
REACH    1        0   202  0.2495E+02  0.7151E+00  0.6438E+00  0.1401E-44
REACH    2        0   202  0.5464E+02  0.1366E+01  0.2740E+00  0.2803E-44
REACH    3        0   202  0.1361E+02  0.3336E-02  0.2866E-01  0.4204E-44
REACH    4        0   202  0.9257E+02  0.3099E+00  0.3694E+00  0.5605E-44
REACH    1        0   203  0.2495E+02  0.6587E-02  0.1704E-01  0.1401E-44
REACH    2        0   203  0.5464E+02  0.2769E-01  0.2624E+00  0.2803E-44
REACH    3        0   203  0.1361E+02  0.6796E-02  0.2764E-01  0.4204E-44
REACH    4        0   203  0.9257E+02  0.2987E+00  0.3660E+00  0.5605E-44
REACH    1        0   204  0.2495E+02  0.3071E+00  0.2406E+00  0.1401E-44
REACH    2        0   204  0.5464E+02  0.5531E+00  0.2760E+00  0.2803E-44
REACH    3        0   204  0.1361E+02  0.2753E+00  0.3924E-01  0.4204E-44
REACH    4        0   204  0.9257E+02  0.4643E+00  0.3706E+00  0.5605E-44
REACH    1        0   205  0.2495E+02  0.5264E-02  0.1957E-01  0.1401E-44
REACH    2        0   205  0.5464E+02  0.2973E-01  0.2645E+00  0.2803E-44
REACH    3        0   205  0.1361E+02  0.4440E-02  0.3761E-01  0.4204E-44
REACH    4        0   205  0.9257E+02  0.3110E+00  0.3678E+00  0.5605E-44
REACH    1        0   206  0.2495E+02  0.3860E-02  0.1883E-01  0.1401E-44
REACH    2        0   206  0.5464E+02  0.2830E-01  0.2534E+00  0.2803E-44
REACH    3        0   206  0.1361E+02  0.3857E-02  0.3603E-01  0.4204E-44
REACH    4        0   206  0.9257E+02  0.2979E+00  0.3645E+00  0.5605E-44
REACH    1        0   207  0.2495E+02  0.3300E-02  0.1810E-01  0.1401E-44
REACH    2        0   207  0.5464E+02  0.2721E-01  0.2428E+00  0.2803E-44
REACH    3        0   207  0.1361E+02  0.3708E-02  0.3451E-01  0.4204E-44
REACH    4        0   207  0.9257E+02  0.2854E+00  0.3608E+00  0.5605E-44
REACH    1        0   208  0.2495E+02  0.2987E-02  0.1739E-01  0.1401E-44
REACH    2        0   208  0.5464E+02  0.2617E-01  0.2326E+00  0.2803E-44
REACH    3        0   208  0.1361E+02  0.7262E+00  0.9794E-01  0.4204E-44
REACH    4        0   208  0.9257E+02  0.7080E+00  0.3771E+00  0.5605E-44
REACH    1        0   209  0.2495E+02  0.5796E-01  0.6015E-01  0.1401E-44
REACH    2        0   209  0.5464E+02  0.1231E+00  0.2275E+00  0.2803E-44
REACH    3        0   209  0.1361E+02  0.7835E-02  0.6241E-01  0.4204E-44
REACH    4        0   209  0.9257E+02  0.3050E+00  0.3737E+00  0.5605E-44
REACH    1        0   210  0.2495E+02  0.1595E-01  0.1892E-01  0.1401E-44
REACH    2        0   210  0.5464E+02  0.3940E-01  0.2187E+00  0.2803E-44
REACH    3        0   210  0.1361E+02  0.6433E-02  0.5978E-01  0.4204E-44
REACH    4        0   210  0.9257E+02  0.2926E+00  0.3699E+00  0.5605E-44
REACH    1        0   211  0.2495E+02  0.3101E-02  0.1647E-01  0.1401E-44
REACH    2        0   211  0.5464E+02  0.2448E-01  0.2096E+00  0.2803E-44
REACH    3        0   211  0.1361E+02  0.6155E-02  0.5727E-01  0.4204E-44
REACH    4        0   211  0.9257E+02  0.2804E+00  0.3657E+00  0.5605E-44
REACH    1        0   212  0.2495E+02  0.7729E-01  0.7836E-01  0.1401E-44
REACH    2        0   212  0.5464E+02  0.1598E+00  0.2072E+00  0.2803E-44
REACH    3        0   212  0.1361E+02  0.8884E-01  0.5875E-01  0.4204E-44
REACH    4        0   212  0.9257E+02  0.3220E+00  0.3636E+00  0.5605E-44
REACH    1        0   213  0.2495E+02  0.1091E+01  0.1020E+01  0.1401E-44
REACH    2        0   213  0.5464E+02  0.2120E+01  0.2969E+00  0.2803E-44
REACH    3        0   213  0.1361E+02  0.6059E-02  0.5628E-01  0.4204E-44
REACH    4        0   213  0.9257E+02  0.3662E+00  0.3638E+00  0.5605E-44
REACH    1        0   214  0.2495E+02  0.8014E-02  0.1927E-01  0.1401E-44
REACH    2        0   214  0.5464E+02  0.3029E-01  0.2844E+00  0.2803E-44
REACH    3        0   214  0.1361E+02  0.5680E-02  0.5390E-01  0.4204E-44
REACH    4        0   214  0.9257E+02  0.3508E+00  0.3631E+00  0.5605E-44
REACH    1        0   215  0.2495E+02  0.9279E-01  0.9626E-01  0.1401E-44
REACH    2        0   215  0.5464E+02  0.1931E+00  0.2801E+00  0.2803E-44
REACH    3        0   215  0.1361E+02  0.5444E-02  0.5163E-01  0.4204E-44
REACH    4        0   215  0.9257E+02  0.3437E+00  0.3622E+00  0.5605E-44
REACH    1        0   216  0.2495E+02  0.4470E-02  0.1840E-01  0.1401E-44
REACH    2        0   216  0.5464E+02  0.2783E-01  0.2683E+00  0.2803E-44
REACH    3        0   216  0.1361E+02  0.5219E-02  0.4945E-01  0.4204E-44
REACH    4        0   216  0.9257E+02  0.3292E+00  0.3607E+00  0.5605E-44
REACH    1        0   217  0.2495E+02  0.5598E-01  0.5920E-01  0.1401E-44
REACH    2        0   217  0.5464E+02  0.1200E+00  0.2613E+00  0.2803E-44
REACH    3        0   217  0.1361E+02  0.5006E-02  0.4737E-01  0.4204E-44
REACH    4        0   217  0.9257E+02  0.3197E+00  0.3587E+00  0.5605E-44
REACH    1        0   218  0.2495E+02  0.3610E-02  0.1755E-01  0.1401E-44
REACH    2        0   218  0.5464E+02  0.2638E-01  0.2503E+00  0.2803E-44
REACH    3        0   218  0.1361E+02  0.4804E-02  0.4537E-01  0.4204E-44
REACH    4        0   218  0.9257E+02  0.3062E+00  0.3563E+00  0.5605E-44
REACH    1        0   219  0.2495E+02  0.3088E-02  0.1687E-01  0.1401E-44
REACH    2        0   219  0.5464E+02  0.2533E-01  0.2398E+00  0.2803E-44
REACH    3        0   219  0.1361E+02  0.4611E-02  0.4346E-01  0.4204E-44
REACH    4        0   219  0.9257E+02  0.2933E+00  0.3533E+00  0.5605E-44
REACH    1        0   220  0.2495E+02  0.6857E+00  0.6173E+00  0.1401E-44
REACH    2        0   220  0.5464E+02  0.1310E+01  0.2899E+00  0.2803E-44
REACH    3        0   220  0.1361E+02  0.4427E-02  0.4163E-01  0.4204E-44
REACH    4        0   220  0.9257E+02  0.3413E+00  0.3527E+00  0.5605E-44
REACH    1        0   221  0.2495E+02  0.6067E-02  0.1953E-01  0.1401E-44
REACH    2        0   221  0.5464E+02  0.2956E-01  0.2777E+00  0.2803E-44
REACH    3        0   221  0.1361E+02  0.4252E-02  0.3988E-01  0.4204E-44
REACH    4        0   221  0.9257E+02  0.3269E+00  0.3515E+00  0.5605E-44
REACH    1        0   222  0.2495E+02  0.3991E-02  0.1880E-01  0.1401E-44
REACH    2        0   222  0.5464E+02  0.2775E-01  0.2660E+00  0.2803E-44
REACH    3        0   222  0.1361E+02  0.4086E-02  0.3820E-01  0.4204E-44
REACH    4        0   222  0.9257E+02  0.3132E+00  0.3497E+00  0.5605E-44
REACH    1        0   223  0.2495E+02  0.3321E-02  0.1808E-01  0.1401E-44
REACH    2        0   223  0.5464E+02  0.2669E-01  0.2548E+00  0.2803E-44
REACH    3        0   223  0.1361E+02  0.3928E-02  0.3659E-01  0.4204E-44
REACH    4        0   223  0.9257E+02  0.3000E+00  0.3474E+00  0.5605E-44
REACH    1        0   224  0.2495E+02  0.2957E-02  0.1737E-01  0.1401E-44
REACH    2        0   224  0.5464E+02  0.2567E-01  0.2440E+00  0.2803E-44
REACH    3        0   224  0.1361E+02  0.3777E-02  0.3505E-01  0.4204E-44
REACH    4        0   224  0.9257E+02  0.2874E+00  0.3446E+00  0.5605E-44
REACH    1        0   225  0.2495E+02  0.6670E+00  0.5994E+00  0.1401E-44
REACH    2        0   225  0.5464E+02  0.1274E+01  0.2923E+00  0.2803E-44
REACH    3        0   225  0.1361E+02  0.3633E-02  0.3358E-01  0.4204E-44
REACH    4        0   225  0.9257E+02  0.3338E+00  0.3440E+00  0.5605E-44
REACH    1        0   226  0.2495E+02  0.2729E+00  0.2101E+00  0.1401E-44
REACH    2        0   226  0.5464E+02  0.4871E+00  0.3014E+00  0.2803E-44
REACH    3        0   226  0.1361E+02  0.2648E-01  0.3324E-01  0.4204E-44
REACH    4        0   226  0.9257E+02  0.3540E+00  0.3445E+00  0.5605E-44
REACH    1        0   227  0.2495E+02  0.2548E+00  0.2610E+00  0.1401E-44
REACH    2        0   227  0.5464E+02  0.5191E+00  0.3116E+00  0.2803E-44
REACH    3        0   227  0.1361E+02  0.1608E+00  0.3922E-01  0.4204E-44
REACH    4        0   227  0.9257E+02  0.4403E+00  0.3490E+00  0.5605E-44
REACH    1        0   228  0.2495E+02  0.6345E-02  0.2261E-01  0.1401E-44
REACH    2        0   228  0.5464E+02  0.3333E-01  0.2986E+00  0.2803E-44
REACH    3        0   228  0.1361E+02  0.4095E-02  0.3758E-01  0.4204E-44
REACH    4        0   228  0.9257E+02  0.3446E+00  0.3488E+00  0.5605E-44
REACH    1        0   229  0.2495E+02  0.4494E-02  0.2177E-01  0.1401E-44
REACH    2        0   229  0.5464E+02  0.3182E-01  0.2861E+00  0.2803E-44
REACH    3        0   229  0.1361E+02  0.3699E-02  0.3599E-01  0.4204E-44
REACH    4        0   229  0.9257E+02  0.3301E+00  0.3479E+00  0.5605E-44
REACH    1        0   230  0.2495E+02  0.3682E-02  0.2092E-01  0.1401E-44
REACH    2        0   230  0.5464E+02  0.3059E-01  0.2741E+00  0.2803E-44
REACH    3        0   230  0.1361E+02  0.3557E-02  0.3447E-01  0.4204E-44
REACH    4        0   230  0.9257E+02  0.3163E+00  0.3464E+00  0.5605E-44
REACH    1        0   231  0.2495E+02  0.3240E-02  0.2009E-01  0.1401E-44
REACH    2        0   231  0.5464E+02  0.2940E-01  0.2626E+00  0.2803E-44
REACH    3        0   231  0.1361E+02  0.3422E-02  0.3301E-01  0.4204E-44
REACH    4        0   231  0.9257E+02  0.3031E+00  0.3444E+00  0.5605E-44
REACH    1        0   232  0.2495E+02  0.2982E-02  0.1929E-01  0.1401E-44
REACH    2        0   232  0.5464E+02  0.2825E-01  0.2516E+00  0.2803E-44
REACH    3        0   232  0.1361E+02  0.3294E-02  0.3162E-01  0.4204E-44
REACH    4        0   232  0.9257E+02  0.2904E+00  0.3418E+00  0.5605E-44
REACH    1        0   233  0.2495E+02  0.1466E+01  0.1397E+01  0.1401E-44
REACH    2        0   233  0.5464E+02  0.2874E+01  0.6943E+00  0.2803E-44
REACH    3        0   233  0.1361E+02  0.3109E-01  0.3159E-01  0.4204E-44
REACH    4        0   233  0.9257E+02  0.7471E+00  0.3608E+00  0.5605E-44
REACH    1        0   234  0.2495E+02  0.1062E-01  0.2205E-01  0.1401E-44
REACH    2        0   234  0.5464E+02  0.3583E-01  0.3426E+00  0.2803E-44
REACH    3        0   234  0.1361E+02  0.3187E-02  0.3026E-01  0.4204E-44
REACH    4        0   234  0.9257E+02  0.3797E+00  0.3617E+00  0.5605E-44
REACH    1        0   235  0.2495E+02  0.6037E-02  0.2130E-01  0.1401E-44
REACH    2        0   235  0.5464E+02  0.3302E-01  0.3281E+00  0.2803E-44
REACH    3        0   235  0.1361E+02  0.3028E-02  0.2898E-01  0.4204E-44
REACH    4        0   235  0.9257E+02  0.3636E+00  0.3618E+00  0.5605E-44
REACH    1        0   236  0.2495E+02  0.7994E-01  0.8558E-01  0.1401E-44
REACH    2        0   236  0.5464E+02  0.1717E+00  0.3207E+00  0.2803E-44
REACH    3        0   236  0.1361E+02  0.2918E-02  0.2776E-01  0.4204E-44
REACH    4        0   236  0.9257E+02  0.3548E+00  0.3615E+00  0.5605E-44
REACH    1        0   237  0.2495E+02  0.4426E-02  0.2024E-01  0.1401E-44
REACH    2        0   237  0.5464E+02  0.3123E-01  0.3072E+00  0.2803E-44
REACH    3        0   237  0.1361E+02  0.9354E-01  0.3084E-01  0.4204E-44
REACH    4        0   237  0.9257E+02  0.3912E+00  0.3628E+00  0.5605E-44
REACH    1        0   238  0.2495E+02  0.3671E-02  0.1946E-01  0.1401E-44
REACH    2        0   238  0.5464E+02  0.2995E-01  0.2942E+00  0.2803E-44
REACH    3        0   238  0.1361E+02  0.3143E-02  0.2954E-01  0.4204E-44
REACH    4        0   238  0.9257E+02  0.3303E+00  0.3613E+00  0.5605E-44
REACH    1        0   239  0.2495E+02  0.3298E-02  0.1871E-01  0.1401E-44
REACH    2        0   239  0.5464E+02  0.2879E-01  0.2817E+00  0.2803E-44
REACH    3        0   239  0.1361E+02  0.2891E-02  0.2829E-01  0.4204E-44
REACH    4        0   239  0.9257E+02  0.3163E+00  0.3592E+00  0.5605E-44
REACH    1        0   240  0.2495E+02  0.3074E-02  0.1797E-01  0.1401E-44
REACH    2        0   240  0.5464E+02  0.2768E-01  0.2698E+00  0.2803E-44
REACH    3        0   240  0.1361E+02  0.2785E-02  0.2709E-01  0.4204E-44
REACH    4        0   240  0.9257E+02  0.3030E+00  0.3565E+00  0.5605E-44
REACH    1        0   241  0.2495E+02  0.2925E-02  0.1727E-01  0.1401E-44
REACH    2        0   241  0.5464E+02  0.2661E-01  0.2584E+00  0.2803E-44
REACH    3        0   241  0.1361E+02  0.2685E-02  0.2595E-01  0.4204E-44
REACH    4        0   241  0.9257E+02  0.2902E+00  0.3534E+00  0.5605E-44
REACH    1        0   242  0.2495E+02  0.2816E-02  0.1659E-01  0.1401E-44
REACH    2        0   242  0.5464E+02  0.2559E-01  0.2475E+00  0.2803E-44
REACH    3        0   242  0.1361E+02  0.2589E-02  0.2485E-01  0.4204E-44
REACH    4        0   242  0.9257E+02  0.2780E+00  0.3499E+00  0.5605E-44
REACH    1        0   243  0.2495E+02  0.2728E-02  0.1594E-01  0.1401E-44
REACH    2        0   243  0.5464E+02  0.2461E-01  0.2370E+00  0.2803E-44
REACH    3        0   243  0.1361E+02  0.2497E-02  0.2380E-01  0.4204E-44
REACH    4        0   243  0.9257E+02  0.2663E+00  0.3460E+00  0.5605E-44
REACH    1        0   244  0.2495E+02  0.6699E-01  0.6774E-01  0.1401E-44
REACH    2        0   244  0.5464E+02  0.1399E+00  0.2325E+00  0.2803E-44
REACH    3        0   244  0.1361E+02  0.2410E-02  0.2280E-01  0.4204E-44
REACH    4        0   244  0.9257E+02  0.2605E+00  0.3419E+00  0.5605E-44
REACH    1        0   245  0.2495E+02  0.3141E-02  0.1530E-01  0.1401E-44
REACH    2        0   245  0.5464E+02  0.2348E-01  0.2227E+00  0.2803E-44
REACH    3        0   245  0.1361E+02  0.1270E-01  0.2232E-01  0.4204E-44
REACH    4        0   245  0.9257E+02  0.2552E+00  0.3379E+00  0.5605E-44
REACH    1        0   246  0.2495E+02  0.2780E-02  0.1471E-01  0.1401E-44
REACH    2        0   246  0.5464E+02  0.2254E-01  0.2133E+00  0.2803E-44
REACH    3        0   246  0.1361E+02  0.1940E-01  0.2219E-01  0.4204E-44
REACH    4        0   246  0.9257E+02  0.2491E+00  0.3337E+00  0.5605E-44
REACH    1        0   247  0.2495E+02  0.2609E-02  0.1415E-01  0.1401E-44
REACH    2        0   247  0.5464E+02  0.2170E-01  0.2043E+00  0.2803E-44
REACH    3        0   247  0.1361E+02  0.2291E-02  0.2125E-01  0.4204E-44
REACH    4        0   247  0.9257E+02  0.2305E+00  0.3289E+00  0.5605E-44
REACH    1        0   248  0.2495E+02  0.2496E-02  0.1360E-01  0.1401E-44
REACH    2        0   248  0.5464E+02  0.2089E-01  0.1957E+00  0.2803E-44
REACH    3        0   248  0.1361E+02  0.2187E-02  0.2036E-01  0.4204E-44
REACH    4        0   248  0.9257E+02  0.2208E+00  0.3238E+00  0.5605E-44
REACH    1        0   249  0.2495E+02  0.2411E-02  0.1308E-01  0.1401E-44
REACH    2        0   249  0.5464E+02  0.2011E-01  0.1875E+00  0.2803E-44
REACH    3        0   249  0.1361E+02  0.2112E-02  0.1950E-01  0.4204E-44
REACH    4        0   249  0.9257E+02  0.2116E+00  0.3185E+00  0.5605E-44
REACH    1        0   250  0.2495E+02  0.2341E-02  0.1257E-01  0.1401E-44
REACH    2        0   250  0.5464E+02  0.1936E-01  0.1796E+00  0.2803E-44
REACH    3        0   250  0.1361E+02  0.2041E-02  0.1868E-01  0.4204E-44
REACH    4        0   250  0.9257E+02  0.2027E+00  0.3131E+00  0.5605E-44
REACH    1        0   251  0.2495E+02  0.4992E-02  0.1222E-01  0.1401E-44
REACH    2        0   251  0.5464E+02  0.2131E-01  0.1722E+00  0.2803E-44
REACH    3        0   251  0.1361E+02  0.1973E-02  0.1790E-01  0.4204E-44
REACH    4        0   251  0.9257E+02  0.1943E+00  0.3075E+00  0.5605E-44
REACH    1        0   252  0.2495E+02  0.2699E-02  0.1177E-01  0.1401E-44
REACH    2        0   252  0.5464E+02  0.1833E-01  0.1650E+00  0.2803E-44
REACH    3        0   252  0.1361E+02  0.1908E-02  0.1715E-01  0.4204E-44
REACH    4        0   252  0.9257E+02  0.1862E+00  0.3018E+00  0.5605E-44
REACH    1        0   253  0.2495E+02  0.2307E-02  0.1133E-01  0.1401E-44
REACH    2        0   253  0.5464E+02  0.1747E-01  0.1580E+00  0.2803E-44
REACH    3        0   253  0.1361E+02  0.1845E-02  0.1643E-01  0.4204E-44
REACH    4        0   253  0.9257E+02  0.1785E+00  0.2960E+00  0.5605E-44
REACH    1        0   254  0.2495E+02  0.2192E-02  0.1090E-01  0.1401E-44
REACH    2        0   254  0.5464E+02  0.1684E-01  0.1514E+00  0.2803E-44
REACH    3        0   254  0.1361E+02  0.1785E-02  0.1574E-01  0.4204E-44
REACH    4        0   254  0.9257E+02  0.1710E+00  0.2902E+00  0.5605E-44
REACH    1        0   255  0.2495E+02  0.4778E-02  0.1061E-01  0.1401E-44
REACH    2        0   255  0.5464E+02  0.1885E-01  0.1452E+00  0.2803E-44
REACH    3        0   255  0.1361E+02  0.1728E-02  0.1508E-01  0.4204E-44
REACH    4        0   255  0.9257E+02  0.1640E+00  0.2843E+00  0.5605E-44
REACH    1        0   256  0.2495E+02  0.2121E-02  0.1021E-01  0.1401E-44
REACH    2        0   256  0.5464E+02  0.1577E-01  0.1391E+00  0.2803E-44
REACH    3        0   256  0.1361E+02  0.1672E-02  0.1445E-01  0.4204E-44
REACH    4        0   256  0.9257E+02  0.1572E+00  0.2783E+00  0.5605E-44
REACH    1        0   257  0.2495E+02  0.6036E-01  0.5576E-01  0.1401E-44
REACH    2        0   257  0.5464E+02  0.1189E+00  0.1382E+00  0.2803E-44
REACH    3        0   257  0.1361E+02  0.4071E-02  0.1397E-01  0.4204E-44
REACH    4        0   257  0.9257E+02  0.1568E+00  0.2726E+00  0.5605E-44
REACH    1        0   258  0.2495E+02  0.1539E-01  0.1190E-01  0.1401E-44
REACH    2        0   258  0.5464E+02  0.2950E-01  0.1331E+00  0.2803E-44
REACH    3        0   258  0.1361E+02  0.2543E-02  0.1343E-01  0.4204E-44
REACH    4        0   258  0.9257E+02  0.1503E+00  0.2669E+00  0.5605E-44
REACH    1        0   259  0.2495E+02  0.6480E-02  0.1041E-01  0.1401E-44
REACH    2        0   259  0.5464E+02  0.1911E-01  0.1277E+00  0.2803E-44
REACH    3        0   259  0.1361E+02  0.1532E-02  0.1287E-01  0.4204E-44
REACH    4        0   259  0.9257E+02  0.1439E+00  0.2611E+00  0.5605E-44
REACH    1        0   260  0.2495E+02  0.1157E-01  0.1047E-01  0.1401E-44
REACH    2        0   260  0.5464E+02  0.2418E-01  0.1229E+00  0.2803E-44
REACH    3        0   260  0.1361E+02  0.1484E-02  0.1234E-01  0.4204E-44
REACH    4        0   260  0.9257E+02  0.1384E+00  0.2553E+00  0.5605E-44
REACH    1        0   261  0.2495E+02  0.3426E-01  0.3037E-01  0.1401E-44
REACH    2        0   261  0.5464E+02  0.6676E-01  0.1203E+00  0.2803E-44
REACH    3        0   261  0.1361E+02  0.1757E-01  0.1258E-01  0.4204E-44
REACH    4        0   261  0.9257E+02  0.1443E+00  0.2501E+00  0.5605E-44
REACH    1        0   262  0.2495E+02  0.7669E+00  0.6919E+00  0.1401E-44
REACH    2        0   262  0.5464E+02  0.1464E+01  0.1832E+00  0.2803E-44
REACH    3        0   262  0.1361E+02  0.1435E-02  0.1206E-01  0.4204E-44
REACH    4        0   262  0.9257E+02  0.1983E+00  0.2477E+00  0.5605E-44
REACH    1        0   263  0.2495E+02  0.5904E-02  0.1389E-01  0.1401E-44
REACH    2        0   263  0.5464E+02  0.2069E-01  0.1756E+00  0.2803E-44
REACH    3        0   263  0.1361E+02  0.1367E-02  0.1156E-01  0.4204E-44
REACH    4        0   263  0.9257E+02  0.1901E+00  0.2450E+00  0.5605E-44
REACH    1        0   264  0.2495E+02  0.3534E-02  0.1340E-01  0.1401E-44
REACH    2        0   264  0.5464E+02  0.1918E-01  0.1683E+00  0.2803E-44
REACH    3        0   264  0.1361E+02  0.1326E-02  0.1107E-01  0.4204E-44
REACH    4        0   264  0.9257E+02  0.1822E+00  0.2420E+00  0.5605E-44
REACH    1        0   265  0.2495E+02  0.2772E-02  0.1290E-01  0.1401E-44
REACH    2        0   265  0.5464E+02  0.1849E-01  0.1612E+00  0.2803E-44
REACH    3        0   265  0.1361E+02  0.1287E-02  0.1062E-01  0.4204E-44
REACH    4        0   265  0.9257E+02  0.1746E+00  0.2389E+00  0.5605E-44
REACH    1        0   266  0.2495E+02  0.2371E-02  0.1241E-01  0.1401E-44
REACH    2        0   266  0.5464E+02  0.1781E-01  0.1545E+00  0.2803E-44
REACH    3        0   266  0.1361E+02  0.1249E-02  0.1018E-01  0.4204E-44
REACH    4        0   266  0.9257E+02  0.1674E+00  0.2355E+00  0.5605E-44
REACH    1        0   267  0.2495E+02  0.2144E-02  0.1193E-01  0.1401E-44
REACH    2        0   267  0.5464E+02  0.1715E-01  0.1481E+00  0.2803E-44
REACH    3        0   267  0.1361E+02  0.1213E-02  0.9754E-02  0.4204E-44
REACH    4        0   267  0.9257E+02  0.1604E+00  0.2320E+00  0.5605E-44
REACH    1        0   268  0.2495E+02  0.2005E-02  0.1146E-01  0.1401E-44
REACH    2        0   268  0.5464E+02  0.1652E-01  0.1419E+00  0.2803E-44
REACH    3        0   268  0.1361E+02  0.2036E-01  0.1025E-01  0.4204E-44
REACH    4        0   268  0.9257E+02  0.1646E+00  0.2288E+00  0.5605E-44
REACH    1        0   269  0.2495E+02  0.1912E-02  0.1102E-01  0.1401E-44
REACH    2        0   269  0.5464E+02  0.1591E-01  0.1360E+00  0.2803E-44
REACH    3        0   269  0.1361E+02  0.1969E-01  0.1069E-01  0.4204E-44
[...]
REACH    3        0   298  0.1361E+02  0.1184E-02  0.1290E-01  0.4204E-44
REACH    4        0   298  0.9257E+02  0.1059E+00  0.1286E+00  0.5605E-44
REACH    1        0   299  0.2495E+02  0.9091E-03  0.6456E-02  0.1401E-44
REACH    2        0   299  0.5464E+02  0.9181E-02  0.8673E-01  0.2803E-44
REACH    3        0   299  0.1361E+02  0.1138E-02  0.1235E-01  0.4204E-44
REACH    4        0   299  0.9257E+02  0.1014E+00  0.1273E+00  0.5605E-44
REACH    1        0   300  0.2495E+02  0.8690E-03  0.6194E-02  0.1401E-44
REACH    2        0   300  0.5464E+02  0.8823E-02  0.8308E-01  0.2803E-44
REACH    3        0   300  0.1361E+02  0.1094E-02  0.1182E-01  0.4204E-44
REACH    4        0   300  0.9257E+02  0.9714E-01  0.1259E+00  0.5605E-44
REACH    1        0   301  0.2495E+02  0.8391E-03  0.5943E-02  0.1401E-44
REACH    2        0   301  0.5464E+02  0.8481E-02  0.7958E-01  0.2803E-44
REACH    3        0   301  0.1361E+02  0.1052E-02  0.1131E-01  0.4204E-44
REACH    4        0   301  0.9257E+02  0.9305E-01  0.1244E+00  0.5605E-44
REACH    1        0   302  0.2495E+02  0.8146E-03  0.5703E-02  0.1401E-44
REACH    2        0   302  0.5464E+02  0.8153E-02  0.7623E-01  0.2803E-44
REACH    3        0   302  0.1361E+02  0.1012E-02  0.1083E-01  0.4204E-44
REACH    4        0   302  0.9257E+02  0.8913E-01  0.1227E+00  0.5605E-44
REACH    1        0   303  0.2495E+02  0.7930E-03  0.5473E-02  0.1401E-44
REACH    2        0   303  0.5464E+02  0.7839E-02  0.7302E-01  0.2803E-44
REACH    3        0   303  0.1361E+02  0.9743E-03  0.1037E-01  0.4204E-44
REACH    4        0   303  0.9257E+02  0.8538E-01  0.1210E+00  0.5605E-44
REACH    1        0   304  0.2495E+02  0.7732E-03  0.5252E-02  0.1401E-44
REACH    2        0   304  0.5464E+02  0.7539E-02  0.6995E-01  0.2803E-44
REACH    3        0   304  0.1361E+02  0.9381E-03  0.9924E-02  0.4204E-44
REACH    4        0   304  0.9257E+02  0.8179E-01  0.1191E+00  0.5605E-44
REACH    1        0   305  0.2495E+02  0.7546E-03  0.5041E-02  0.1401E-44
REACH    2        0   305  0.5464E+02  0.7251E-02  0.6701E-01  0.2803E-44
REACH    3        0   305  0.1361E+02  0.9036E-03  0.9500E-02  0.4204E-44
REACH    4        0   305  0.9257E+02  0.7835E-01  0.1172E+00  0.5605E-44
REACH    1        0   306  0.2495E+02  0.7368E-03  0.4840E-02  0.1401E-44
REACH    2        0   306  0.5464E+02  0.6976E-02  0.6419E-01  0.2803E-44
REACH    3        0   306  0.1361E+02  0.8707E-03  0.9095E-02  0.4204E-44
REACH    4        0   306  0.9257E+02  0.7506E-01  0.1152E+00  0.5605E-44
REACH    1        0   307  0.2495E+02  0.7196E-03  0.4646E-02  0.1401E-44
REACH    2        0   307  0.5464E+02  0.6713E-02  0.6150E-01  0.2803E-44
REACH    3        0   307  0.1361E+02  0.8393E-03  0.8707E-02  0.4204E-44
REACH    4        0   307  0.9257E+02  0.7191E-01  0.1132E+00  0.5605E-44
REACH    1        0   308  0.2495E+02  0.7029E-03  0.4461E-02  0.1401E-44
REACH    2        0   308  0.5464E+02  0.6460E-02  0.5892E-01  0.2803E-44
REACH    3        0   308  0.1361E+02  0.8093E-03  0.8336E-02  0.4204E-44
REACH    4        0   308  0.9257E+02  0.6889E-01  0.1111E+00  0.5605E-44
REACH    1        0   309  0.2495E+02  0.6867E-03  0.4284E-02  0.1401E-44
REACH    2        0   309  0.5464E+02  0.6218E-02  0.5644E-01  0.2803E-44
REACH    3        0   309  0.1361E+02  0.7807E-03  0.7982E-02  0.4204E-44
REACH    4        0   309  0.9257E+02  0.6600E-01  0.1090E+00  0.5605E-44
REACH    1        0   310  0.2495E+02  0.6710E-03  0.4115E-02  0.1401E-44
REACH    2        0   310  0.5464E+02  0.5987E-02  0.5408E-01  0.2803E-44
REACH    3        0   310  0.1361E+02  0.7534E-03  0.7642E-02  0.4204E-44
REACH    4        0   310  0.9257E+02  0.6324E-01  0.1068E+00  0.5605E-44
REACH    1        0   311  0.2495E+02  0.6556E-03  0.3953E-02  0.1401E-44
REACH    2        0   311  0.5464E+02  0.5765E-02  0.5181E-01  0.2803E-44
REACH    3        0   311  0.1361E+02  0.7273E-03  0.7317E-02  0.4204E-44
REACH    4        0   311  0.9257E+02  0.6059E-01  0.1047E+00  0.5605E-44
REACH    1        0   312  0.2495E+02  0.6405E-03  0.3797E-02  0.1401E-44
REACH    2        0   312  0.5464E+02  0.5553E-02  0.4964E-01  0.2803E-44
REACH    3        0   312  0.1361E+02  0.7024E-03  0.7007E-02  0.4204E-44
REACH    4        0   312  0.9257E+02  0.5806E-01  0.1025E+00  0.5605E-44
REACH    1        0   313  0.2495E+02  0.6258E-03  0.3649E-02  0.1401E-44
REACH    2        0   313  0.5464E+02  0.5349E-02  0.4756E-01  0.2803E-44
REACH    3        0   313  0.1361E+02  0.6786E-03  0.6709E-02  0.4204E-44
REACH    4        0   313  0.9257E+02  0.5563E-01  0.1003E+00  0.5605E-44
REACH    1        0   314  0.2495E+02  0.6192E-02  0.3768E-02  0.1401E-44
REACH    2        0   314  0.5464E+02  0.8722E-02  0.4574E-01  0.2803E-44
REACH    3        0   314  0.1361E+02  0.8050E-03  0.6431E-02  0.4204E-44
REACH    4        0   314  0.9257E+02  0.5382E-01  0.9810E-01  0.5605E-44
REACH    1        0   315  0.2495E+02  0.7125E-03  0.3624E-02  0.1401E-44
REACH    2        0   315  0.5464E+02  0.5226E-02  0.4384E-01  0.2803E-44
REACH    3        0   315  0.1361E+02  0.6341E-03  0.6159E-02  0.4204E-44
REACH    4        0   315  0.9257E+02  0.5126E-01  0.9590E-01  0.5605E-44
REACH    1        0   316  0.2495E+02  0.6402E-03  0.3484E-02  0.1401E-44
REACH    2        0   316  0.5464E+02  0.5034E-02  0.4202E-01  0.2803E-44
REACH    3        0   316  0.1361E+02  0.6130E-03  0.5898E-02  0.4204E-44
REACH    4        0   316  0.9257E+02  0.4914E-01  0.9370E-01  0.5605E-44
REACH    1        0   317  0.2495E+02  0.6009E-03  0.3349E-02  0.1401E-44
REACH    2        0   317  0.5464E+02  0.4852E-02  0.4027E-01  0.2803E-44
REACH    3        0   317  0.1361E+02  0.5930E-03  0.5649E-02  0.4204E-44
REACH    4        0   317  0.9257E+02  0.4710E-01  0.9152E-01  0.5605E-44
REACH    1        0   318  0.2495E+02  0.5748E-03  0.3219E-02  0.1401E-44
REACH    2        0   318  0.5464E+02  0.4677E-02  0.3860E-01  0.2803E-44
REACH    3        0   318  0.1361E+02  0.5739E-03  0.5410E-02  0.4204E-44
REACH    4        0   318  0.9257E+02  0.4515E-01  0.8934E-01  0.5605E-44
REACH    1        0   319  0.2495E+02  0.5554E-03  0.3094E-02  0.1401E-44
REACH    2        0   319  0.5464E+02  0.4508E-02  0.3700E-01  0.2803E-44
REACH    3        0   319  0.1361E+02  0.5555E-03  0.5182E-02  0.4204E-44
REACH    4        0   319  0.9257E+02  0.4329E-01  0.8718E-01  0.5605E-44
REACH    1        0   320  0.2495E+02  0.5395E-03  0.2974E-02  0.1401E-44
REACH    2        0   320  0.5464E+02  0.4346E-02  0.3547E-01  0.2803E-44
REACH    3        0   320  0.1361E+02  0.5379E-03  0.4964E-02  0.4204E-44
REACH    4        0   320  0.9257E+02  0.4150E-01  0.8503E-01  0.5605E-44
REACH    1        0   321  0.2495E+02  0.2999E+00  0.2202E+00  0.1401E-44
REACH    2        0   321  0.5464E+02  0.4601E+00  0.5537E-01  0.2803E-44
REACH    3        0   321  0.1361E+02  0.7665E-01  0.8323E-02  0.4204E-44
REACH    4        0   321  0.9257E+02  0.1068E+00  0.8605E-01  0.5605E-44
REACH    1        0   322  0.2495E+02  0.2215E-02  0.6648E-02  0.1401E-44
REACH    2        0   322  0.5464E+02  0.8649E-02  0.5317E-01  0.2803E-44
REACH    3        0   322  0.1361E+02  0.8846E-03  0.7974E-02  0.4204E-44
REACH    4        0   322  0.9257E+02  0.6277E-01  0.8495E-01  0.5605E-44
REACH    1        0   323  0.2495E+02  0.1237E-02  0.6395E-02  0.1401E-44
REACH    2        0   323  0.5464E+02  0.8081E-02  0.5106E-01  0.2803E-44
REACH    3        0   323  0.1361E+02  0.7367E-03  0.7634E-02  0.4204E-44
REACH    4        0   323  0.9257E+02  0.6022E-01  0.8379E-01  0.5605E-44
REACH    1        0   324  0.2495E+02  0.9169E-03  0.6138E-02  0.1401E-44
REACH    2        0   324  0.5464E+02  0.7768E-02  0.4903E-01  0.2803E-44
REACH    3        0   324  0.1361E+02  0.7097E-03  0.7310E-02  0.4204E-44
REACH    4        0   324  0.9257E+02  0.5781E-01  0.8257E-01  0.5605E-44
REACH    1        0   325  0.2495E+02  0.2502E+00  0.2397E+00  0.1401E-44
REACH    2        0   325  0.5464E+02  0.4498E+00  0.6781E-01  0.2803E-44
REACH    3        0   325  0.1361E+02  0.5453E-01  0.9522E-02  0.4204E-44
REACH    4        0   325  0.9257E+02  0.1080E+00  0.8376E-01  0.5605E-44
REACH    1        0   326  0.2495E+02  0.1302E+01  0.1223E+01  0.1401E-44
REACH    2        0   326  0.5464E+02  0.2731E+01  0.4419E+00  0.2803E-44
REACH    3        0   326  0.1361E+02  0.4598E+00  0.3063E-01  0.4204E-44
REACH    4        0   326  0.9257E+02  0.7092E+00  0.1131E+00  0.5605E-44
REACH    1        0   327  0.2495E+02  0.9753E-02  0.1051E-01  0.1401E-44
REACH    2        0   327  0.5464E+02  0.1798E-01  0.1721E+00  0.2803E-44
REACH    3        0   327  0.1361E+02  0.3758E-02  0.2937E-01  0.4204E-44
REACH    4        0   327  0.9257E+02  0.2082E+00  0.1175E+00  0.5605E-44
REACH    1        0   328  0.2495E+02  0.4771E-02  0.1024E-01  0.1401E-44
REACH    2        0   328  0.5464E+02  0.1585E-01  0.1648E+00  0.2803E-44
REACH    3        0   328  0.1361E+02  0.2899E-02  0.2812E-01  0.4204E-44
REACH    4        0   328  0.9257E+02  0.1991E+00  0.1213E+00  0.5605E-44
REACH    1        0   329  0.2495E+02  0.3033E-02  0.9905E-02  0.1401E-44
REACH    2        0   329  0.5464E+02  0.1527E-01  0.1578E+00  0.2803E-44
REACH    3        0   329  0.1361E+02  0.2766E-02  0.2693E-01  0.4204E-44
REACH    4        0   329  0.9257E+02  0.1906E+00  0.1246E+00  0.5605E-44
REACH    1        0   330  0.2495E+02  0.2153E-02  0.9542E-02  0.1401E-44
REACH    2        0   330  0.5464E+02  0.1468E-01  0.1511E+00  0.2803E-44
REACH    3        0   330  0.1361E+02  0.2642E-02  0.2580E-01  0.4204E-44
REACH    4        0   330  0.9257E+02  0.1825E+00  0.1273E+00  0.5605E-44
REACH    1        0   331  0.2495E+02  0.1691E-02  0.9174E-02  0.1401E-44
REACH    2        0   331  0.5464E+02  0.1410E-01  0.1446E+00  0.2803E-44
REACH    3        0   331  0.1361E+02  0.2525E-02  0.2471E-01  0.4204E-44
REACH    4        0   331  0.9257E+02  0.1747E+00  0.1295E+00  0.5605E-44
REACH    1        0   332  0.2495E+02  0.4653E+00  0.3911E+00  0.1401E-44
REACH    2        0   332  0.5464E+02  0.7592E+00  0.1734E+00  0.2803E-44
REACH    3        0   332  0.1361E+02  0.1159E+00  0.2898E-01  0.4204E-44
REACH    4        0   332  0.9257E+02  0.2541E+00  0.1353E+00  0.5605E-44
REACH    1        0   333  0.2495E+02  0.5121E-02  0.1245E-01  0.1401E-44
REACH    2        0   333  0.5464E+02  0.1980E-01  0.1662E+00  0.2803E-44
REACH    3        0   333  0.1361E+02  0.3266E-02  0.2777E-01  0.4204E-44
REACH    4        0   333  0.9257E+02  0.2003E+00  0.1384E+00  0.5605E-44
REACH    1        0   334  0.2495E+02  0.5730E+00  0.5013E+00  0.1401E-44
REACH    2        0   334  0.5464E+02  0.1218E+01  0.2155E+00  0.2803E-44
REACH    3        0   334  0.1361E+02  0.2468E+00  0.3804E-01  0.4204E-44
REACH    4        0   334  0.9257E+02  0.3747E+00  0.1495E+00  0.5605E-44
REACH    1        0   335  0.2495E+02  0.7263E-02  0.1555E-01  0.1401E-44
REACH    2        0   335  0.5464E+02  0.2365E-01  0.2065E+00  0.2803E-44
REACH    3        0   335  0.1361E+02  0.4410E-02  0.3646E-01  0.4204E-44
REACH    4        0   335  0.9257E+02  0.2512E+00  0.1542E+00  0.5605E-44
REACH    1        0   336  0.2495E+02  0.4135E-02  0.1502E-01  0.1401E-44
REACH    2        0   336  0.5464E+02  0.2204E-01  0.1979E+00  0.2803E-44
REACH    3        0   336  0.1361E+02  0.3845E-02  0.3493E-01  0.4204E-44
REACH    4        0   336  0.9257E+02  0.2405E+00  0.1583E+00  0.5605E-44
REACH    1        0   337  0.2495E+02  0.2890E-02  0.1445E-01  0.1401E-44
REACH    2        0   337  0.5464E+02  0.2118E-01  0.1896E+00  0.2803E-44
REACH    3        0   337  0.1361E+02  0.3672E-02  0.3346E-01  0.4204E-44
REACH    4        0   337  0.9257E+02  0.2304E+00  0.1616E+00  0.5605E-44
REACH    1        0   338  0.2495E+02  0.2248E-02  0.1388E-01  0.1401E-44
REACH    2        0   338  0.5464E+02  0.2033E-01  0.1817E+00  0.2803E-44
REACH    3        0   338  0.1361E+02  0.3509E-02  0.3206E-01  0.4204E-44
REACH    4        0   338  0.9257E+02  0.2208E+00  0.1644E+00  0.5605E-44
REACH    1        0   339  0.2495E+02  0.4672E+00  0.3975E+00  0.1401E-44
REACH    2        0   339  0.5464E+02  0.9180E+00  0.2162E+00  0.2803E-44
REACH    3        0   339  0.1361E+02  0.1555E+00  0.3785E-01  0.4204E-44
REACH    4        0   339  0.9257E+02  0.3403E+00  0.1727E+00  0.5605E-44
REACH    1        0   340  0.2495E+02  0.4322E+00  0.3659E+00  0.1401E-44
REACH    2        0   340  0.5464E+02  0.8067E+00  0.2438E+00  0.2803E-44
REACH    3        0   340  0.1361E+02  0.1301E+00  0.4217E-01  0.4204E-44
REACH    4        0   340  0.9257E+02  0.3557E+00  0.1812E+00  0.5605E-44
REACH    1        0   341  0.2495E+02  0.7787E-02  0.1995E-01  0.1401E-44
REACH    2        0   341  0.5464E+02  0.2924E-01  0.2338E+00  0.2803E-44
REACH    3        0   341  0.1361E+02  0.4905E-02  0.4042E-01  0.4204E-44
REACH    4        0   341  0.9257E+02  0.2838E+00  0.1860E+00  0.5605E-44
REACH    1        0   342  0.2495E+02  0.4662E-02  0.1923E-01  0.1401E-44
REACH    2        0   342  0.5464E+02  0.2769E-01  0.2241E+00  0.2803E-44
REACH    3        0   342  0.1361E+02  0.4497E-02  0.3874E-01  0.4204E-44
REACH    4        0   342  0.9257E+02  0.2720E+00  0.1901E+00  0.5605E-44
REACH    1        0   343  0.2495E+02  0.1984E+00  0.2008E+00  0.1401E-44
REACH    2        0   343  0.5464E+02  0.3921E+00  0.2320E+00  0.2803E-44
REACH    3        0   343  0.1361E+02  0.6935E-01  0.4017E-01  0.4204E-44
REACH    4        0   343  0.9257E+02  0.3105E+00  0.1957E+00  0.5605E-44
REACH    1        0   344  0.2495E+02  0.4612E-02  0.1843E-01  0.1401E-44
REACH    2        0   344  0.5464E+02  0.2699E-01  0.2224E+00  0.2803E-44
REACH    3        0   344  0.1361E+02  0.4634E-02  0.3851E-01  0.4204E-44
REACH    4        0   344  0.9257E+02  0.2701E+00  0.1992E+00  0.5605E-44
REACH    1        0   345  0.2495E+02  0.3213E-02  0.1772E-01  0.1401E-44
REACH    2        0   345  0.5464E+02  0.2574E-01  0.2132E+00  0.2803E-44
REACH    3        0   345  0.1361E+02  0.4332E-02  0.3691E-01  0.4204E-44
REACH    4        0   345  0.9257E+02  0.2588E+00  0.2020E+00  0.5605E-44
REACH    1        0   346  0.2495E+02  0.2600E-02  0.1701E-01  0.1401E-44
REACH    2        0   346  0.5464E+02  0.2471E-01  0.2043E+00  0.2803E-44
REACH    3        0   346  0.1361E+02  0.4143E-02  0.3537E-01  0.4204E-44
REACH    4        0   346  0.9257E+02  0.2481E+00  0.2041E+00  0.5605E-44
REACH    1        0   347  0.2495E+02  0.2266E-02  0.1632E-01  0.1401E-44
REACH    2        0   347  0.5464E+02  0.2371E-01  0.1959E+00  0.2803E-44
REACH    3        0   347  0.1361E+02  0.3964E-02  0.3390E-01  0.4204E-44
REACH    4        0   347  0.9257E+02  0.2378E+00  0.2057E+00  0.5605E-44
REACH    1        0   348  0.2495E+02  0.2072E-02  0.1565E-01  0.1401E-44
REACH    2        0   348  0.5464E+02  0.2274E-01  0.1877E+00  0.2803E-44
REACH    3        0   348  0.1361E+02  0.3794E-02  0.3249E-01  0.4204E-44
REACH    4        0   348  0.9257E+02  0.2279E+00  0.2068E+00  0.5605E-44
REACH    1        0   349  0.2495E+02  0.1949E-02  0.1501E-01  0.1401E-44
REACH    2        0   349  0.5464E+02  0.2182E-01  0.1800E+00  0.2803E-44
REACH    3        0   349  0.1361E+02  0.3633E-02  0.3113E-01  0.4204E-44
REACH    4        0   349  0.9257E+02  0.2184E+00  0.2073E+00  0.5605E-44
REACH    1        0   350  0.2495E+02  0.9637E+00  0.8932E+00  0.1401E-44
REACH    2        0   350  0.5464E+02  0.1978E+01  0.2642E+00  0.2803E-44
REACH    3        0   350  0.1361E+02  0.2910E+00  0.4331E-01  0.4204E-44
REACH    4        0   350  0.9257E+02  0.4684E+00  0.2195E+00  0.5605E-44
REACH    1        0   351  0.2495E+02  0.9069E-02  0.1803E-01  0.1401E-44
REACH    2        0   351  0.5464E+02  0.2865E-01  0.2532E+00  0.2803E-44
REACH    3        0   351  0.1361E+02  0.5260E-02  0.4153E-01  0.4204E-44
REACH    4        0   351  0.9257E+02  0.3048E+00  0.2235E+00  0.5605E-44
REACH    1        0   352  0.2495E+02  0.1136E+00  0.1157E+00  0.1401E-44
REACH    2        0   352  0.5464E+02  0.2552E+00  0.2533E+00  0.2803E-44
REACH    3        0   352  0.1361E+02  0.4895E-01  0.4188E-01  0.4204E-44
REACH    4        0   352  0.9257E+02  0.3263E+00  0.2283E+00  0.5605E-44
REACH    1        0   353  0.2495E+02  0.5235E-02  0.1732E-01  0.1401E-44
REACH    2        0   353  0.5464E+02  0.2673E-01  0.2427E+00  0.2803E-44
REACH    3        0   353  0.1361E+02  0.4829E-02  0.4014E-01  0.4204E-44
REACH    4        0   353  0.9257E+02  0.2927E+00  0.2314E+00  0.5605E-44
REACH    1        0   354  0.2495E+02  0.3687E-02  0.1668E-01  0.1401E-44
REACH    2        0   354  0.5464E+02  0.2558E-01  0.2325E+00  0.2803E-44
REACH    3        0   354  0.1361E+02  0.4555E-02  0.3847E-01  0.4204E-44
REACH    4        0   354  0.9257E+02  0.2804E+00  0.2336E+00  0.5605E-44
REACH    1        0   355  0.2495E+02  0.2947E-02  0.1604E-01  0.1401E-44
REACH    2        0   355  0.5464E+02  0.2458E-01  0.2227E+00  0.2803E-44
REACH    3        0   355  0.1361E+02  0.4360E-02  0.3687E-01  0.4204E-44
REACH    4        0   355  0.9257E+02  0.2686E+00  0.2353E+00  0.5605E-44
REACH    1        0   356  0.2495E+02  0.2546E-02  0.1541E-01  0.1401E-44
REACH    2        0   356  0.5464E+02  0.2360E-01  0.2134E+00  0.2803E-44
REACH    3        0   356  0.1361E+02  0.4176E-02  0.3534E-01  0.4204E-44
REACH    4        0   356  0.9257E+02  0.2574E+00  0.2363E+00  0.5605E-44
REACH    1        0   357  0.2495E+02  0.2315E-02  0.1479E-01  0.1401E-44
REACH    2        0   357  0.5464E+02  0.2267E-01  0.2045E+00  0.2803E-44
REACH    3        0   357  0.1361E+02  0.4001E-02  0.3387E-01  0.4204E-44
REACH    4        0   357  0.9257E+02  0.2466E+00  0.2368E+00  0.5605E-44
REACH    1        0   358  0.2495E+02  0.2171E-02  0.1420E-01  0.1401E-44
REACH    2        0   358  0.5464E+02  0.2177E-01  0.1959E+00  0.2803E-44
REACH    3        0   358  0.1361E+02  0.3835E-02  0.3246E-01  0.4204E-44
REACH    4        0   358  0.9257E+02  0.2363E+00  0.2368E+00  0.5605E-44
REACH    1        0   359  0.2495E+02  0.2071E-02  0.1363E-01  0.1401E-44
REACH    2        0   359  0.5464E+02  0.2113E-01  0.1877E+00  0.2803E-44
REACH    3        0   359  0.1361E+02  0.7474E-02  0.3129E-01  0.4204E-44
REACH    4        0   359  0.9257E+02  0.2299E+00  0.2364E+00  0.5605E-44
REACH    1        0   360  0.2495E+02  0.4462E-01  0.4352E-01  0.1401E-44
REACH    2        0   360  0.5464E+02  0.9039E-01  0.1831E+00  0.2803E-44
REACH    3        0   360  0.1361E+02  0.9944E-02  0.3029E-01  0.4204E-44
REACH    4        0   360  0.9257E+02  0.2254E+00  0.2359E+00  0.5605E-44
REACH    1        0   361  0.2495E+02  0.2399E-02  0.1316E-01  0.1401E-44
REACH    2        0   361  0.5464E+02  0.2009E-01  0.1755E+00  0.2803E-44
REACH    3        0   361  0.1361E+02  0.3474E-02  0.2903E-01  0.4204E-44
REACH    4        0   361  0.9257E+02  0.2117E+00  0.2348E+00  0.5605E-44
REACH    1        0   362  0.2495E+02  0.2106E-02  0.1264E-01  0.1401E-44
REACH    2        0   362  0.5464E+02  0.1927E-01  0.1682E+00  0.2803E-44
REACH    3        0   362  0.1361E+02  0.3325E-02  0.2783E-01  0.4204E-44
REACH    4        0   362  0.9257E+02  0.2029E+00  0.2333E+00  0.5605E-44
REACH    1        0   363  0.2495E+02  0.3054E+00  0.2351E+00  0.1401E-44
REACH    2        0   363  0.5464E+02  0.6012E+00  0.1885E+00  0.2803E-44
REACH    3        0   363  0.1361E+02  0.1146E+00  0.3189E-01  0.4204E-44
REACH    4        0   363  0.9257E+02  0.2921E+00  0.2360E+00  0.5605E-44
REACH    1        0   364  0.2495E+02  0.3645E-02  0.1549E-01  0.1401E-44
REACH    2        0   364  0.5464E+02  0.2303E-01  0.1807E+00  0.2803E-44
REACH    3        0   364  0.1361E+02  0.3809E-02  0.3058E-01  0.4204E-44
REACH    4        0   364  0.9257E+02  0.2192E+00  0.2352E+00  0.5605E-44
REACH    1        0   365  0.2495E+02  0.2578E-02  0.1489E-01  0.1401E-44
REACH    2        0   365  0.5464E+02  0.2176E-01  0.1733E+00  0.2803E-44
REACH    3        0   365  0.1361E+02  0.3487E-02  0.2931E-01  0.4204E-44
REACH    4        0   365  0.9257E+02  0.2101E+00  0.2341E+00  0.5605E-44
