1
    SWAT Dec 6 2013    VER 2012/Rev 613                                                                  0/ 0/   0      0: 0: 0

    General Input/Output section (file.cio):                                        
    2/7/2013 12:00:00 AM ARCGIS-SWAT interface AV                                   
                                                                                    
         Number of years in run:    3
         Area of watershed:       92.569 km2
1
    SWAT Dec 6 2013    VER 2012/Rev 613                                             

    General Input/Output section (file.cio):                                        
    2/7/2013 12:00:00 AM ARCGIS-SWAT interface AV                                   
                                                                                    
Annual Summary for Watershed in year    1 of simulation

UNIT                                    PERCO    TILE                           WATER     SED     NO3     NO3     NO3     NO3        N       P       P
TIME     PREC    SURQ    LATQ     GWQ    LATE       Q     SW       ET     PET   YIELD   YIELD    SURQ    LATQ    PERC    CROP  ORGANIC SOLUBLE ORGANIC TILENO3
         (mm)    (mm)    (mm)    (mm)    (mm)    (mm)    (mm)    (mm)    (mm)    (mm)    (mm)   ------------------(kg nutrient/ha)-------------------- (kg/ha)
1
    SWAT Dec 6 2013    VER 2012/Rev 613                                             

    General Input/Output section (file.cio):                                        
    2/7/2013 12:00:00 AM ARCGIS-SWAT interface AV                                   
                                                                                    
Annual Summary for Watershed in year    2 of simulation

UNIT                                    PERCO    TILE                           WATER     SED     NO3     NO3     NO3     NO3        N       P       P
TIME     PREC    SURQ    LATQ     GWQ    LATE       Q     SW       ET     PET   YIELD   YIELD    SURQ    LATQ    PERC    CROP  ORGANIC SOLUBLE ORGANIC TILENO3
         (mm)    (mm)    (mm)    (mm)    (mm)    (mm)    (mm)    (mm)    (mm)    (mm)    (mm)   ------------------(kg nutrient/ha)-------------------- (kg/ha)
    1    5.14    0.13    0.02    0.00    0.00    0.00  125.52    0.59    1.28    0.15    0.00    0.00    0.00    0.00    0.00     0.00    0.00    0.00    0.00
    2    0.00    0.00    0.02    0.00    0.00    0.00  124.50    1.01    1.93    0.02    0.00    0.00    0.00    0.00    0.00     0.00    0.00    0.00    0.00
    3    0.00    0.00    0.02    0.00    0.00    0.00  123.45    1.05    2.08    0.02    0.00    0.00    0.00    0.00    0.00     0.00    0.00    0.00    0.00
    4    0.00    0.00    0.02    0.00    0.00    0.00  122.49    0.96    1.93    0.02    0.00    0.00    0.00    0.00    0.00     0.00    0.00    0.00    0.00
    5    6.19    0.27    0.02    0.00    0.00    0.00  127.32    1.06    1.27    0.29    0.01    0.01    0.00    0.00    0.00     0.01    0.00    0.00    0.00
    6    1.17    0.01    0.02    0.00    0.00    0.00  126.43    2.04    3.10    0.02    0.00    0.00    0.00    0.00    0.00     0.00    0.00    0.00    0.00
    7    0.00    0.00    0.02    0.00    0.00    0.00  124.93    1.50    2.60    0.02    0.00    0.00    0.00    0.00    0.00     0.00    0.00    0.00    0.00
    8    9.99    0.12    0.02    0.00    0.00    0.00  128.15    0.39    0.59    0.14    0.00    0.00    0.00    0.00    0.00     0.00    0.00    0.00    0.00
    9    1.23    0.06    0.02    0.00    0.00    0.00  129.73    0.38    0.56    0.08    0.00    0.00    0.00    0.00    0.00     0.00    0.00    0.00    0.00
   10    7.91    0.00    0.01    0.00    0.00    0.00  129.53    0.20    0.39    0.01    0.00    0.00    0.00    0.00    0.00     0.00    0.00    0.00    0.00
   11    5.52    0.00    0.01    0.00    0.00    0.00  129.42    0.12    0.24    0.01    0.00    0.00    0.00    0.00    0.00     0.00    0.00    0.00    0.00
   12    0.12    1.12    0.02    0.00    0.00    0.00  145.26    1.85    2.12    1.15    0.02    0.00    0.00    0.00    0.00     0.02    0.00    0.00    0.00
   13    4.20    0.10    0.02    0.00    0.00    0.00  147.35    1.95    2.25    0.12    0.00    0.00    0.00    0.00    0.00     0.00    0.00    0.00    0.00
   14    0.00    0.00    0.02    0.00    0.30    0.00  145.79    1.24    1.53    0.02    0.00    0.00    0.00    0.08    0.00     0.00    0.00    0.00    0.00
   15    0.00    0.00    0.02    0.00    0.33    0.00  143.18    2.28    2.97    0.02    0.00    0.00    0.00    0.09    0.00     0.00    0.00    0.00    0.00
   16    0.00    0.00    0.02    0.00    0.20    0.00  141.29    1.70    2.44    0.02    0.00    0.00    0.00    0.05    0.00     0.00    0.00    0.00    0.00
   17    0.00    0.00    0.02    0.00    0.10    0.00  140.33    0.86    1.31    0.02    0.00    0.00    0.00    0.03    0.00     0.00    0.00    0.00    0.00
   18   10.28    1.01    0.03    0.00    0.05    0.00  148.86    0.62    0.73    1.04    0.03    0.01    0.00    0.01    0.00     0.05    0.00    0.01    0.00
   19    1.28    0.01    0.02    0.00    0.02    0.00  148.01    2.10    2.39    0.04    0.00    0.00    0.00    0.01    0.00     0.00    0.00    0.00    0.00
   20    6.25    0.00    0.02    0.00    0.01    0.00  146.66    1.34    1.67    0.02    0.00    0.00    0.00    0.00    0.00     0.00    0.00    0.00    0.00
   21    0.00    0.01    0.02    0.00    0.00    0.00  147.38    0.67    0.82    0.04    0.00    0.00    0.00    0.00    0.00     0.00    0.00    0.00    0.00
   22    0.00    0.12    0.02    0.00    0.35    0.00  150.22    1.47    1.84    0.15    0.00    0.00    0.00    0.09    0.00     0.00    0.00    0.00    0.00
   23    0.00    0.00    0.02    0.01    0.22    0.00  147.60    2.40    3.20    0.03    0.00    0.00    0.00    0.05    0.00     0.00    0.00    0.00    0.00
   24    3.23    0.06    0.02    0.01    0.37    0.00  148.33    2.02    2.99    0.09    0.00    0.00    0.00    0.09    0.00     0.00    0.00    0.00    0.00
   25    3.97    0.24    0.02    0.01    0.29    0.00  150.07    1.67    1.92    0.27    0.01    0.00    0.00    0.06    0.00     0.01    0.00    0.00    0.00
   26    0.00    0.00    0.02    0.01    0.18    0.00  148.99    0.89    1.09    0.03    0.00    0.00    0.00    0.04    0.00     0.00    0.00    0.00    0.00
   27    0.00    0.00    0.02    0.01    0.09    0.00  148.51    0.39    0.50    0.03    0.00    0.00    0.00    0.02    0.00     0.00    0.00    0.00    0.00
   28    0.00    0.00    0.02    0.01    0.05    0.00  147.07    1.39    1.80    0.03    0.00    0.00    0.00    0.01    0.00     0.00    0.00    0.00    0.00
   29    0.00    0.00    0.02    0.01    0.01    0.00  145.41    1.65    2.26    0.03    0.00    0.00    0.00    0.00    0.00     0.00    0.00    0.00    0.00
   30    0.00    0.00    0.02    0.01    0.00    0.00  143.61    1.79    2.60    0.03    0.00    0.00    0.00    0.00    0.00     0.00    0.00    0.00    0.00
   31    0.00    0.00    0.02    0.01    0.00    0.00  141.81    1.80    2.78    0.03    0.00    0.00    0.00    0.00    0.00     0.00    0.00    0.00    0.00
    1   66.46    3.27    0.58    0.11    2.59    0.00  141.81   39.37   55.20    3.96    0.07    0.03    0.01    0.62    0.00     0.10    0.00    0.01    0.00
   32    3.50    0.05    0.02    0.01    0.00    0.00  143.83    0.64    1.30    0.08    0.00    0.00    0.00    0.00    0.00     0.00    0.00    0.00    0.00
   33    0.00    0.00    0.02    0.02    0.00    0.00  143.40    1.20    2.01    0.03    0.00    0.00    0.00    0.00    0.00     0.00    0.00    0.00    0.00
   34    0.00    0.00    0.01    0.02    0.00    0.00  142.55    0.85    1.46    0.03    0.00    0.00    0.00    0.00    0.00     0.00    0.00    0.00    0.00
   35    0.00    0.00    0.01    0.02    0.00    0.00  141.25    1.30    2.26    0.03    0.00    0.00    0.00    0.00    0.00     0.00    0.00    0.00    0.00
   36    0.00    0.00    0.01    0.02    0.00    0.00  140.00    1.25    2.22    0.03    0.00    0.00    0.00    0.00    0.00     0.00    0.00    0.00    0.00
   37    0.30    0.00    0.01    0.02    0.00    0.00  139.90    0.40    0.61    0.03    0.00    0.00    0.00    0.00    0.00     0.00    0.00    0.00    0.00
   38    1.30    0.01    0.01    0.02    0.00    0.00  140.06    1.12    1.94    0.04    0.00    0.00    0.00    0.00    0.00     0.00    0.00    0.00    0.00
   39    8.23    0.67    0.02    0.02    0.00    0.00  145.76    1.83    2.04    0.70    0.02    0.01    0.00    0.00    0.00     0.02    0.00    0.00    0.00
   40    6.69    0.22    0.02    0.02    0.50    0.00  150.39    1.26    1.59    0.26    0.00    0.00    0.00    0.11    0.00     0.01    0.00    0.00    0.00
   41    0.39    0.00    0.02    0.02    0.31    0.00  149.60    0.86    1.05    0.04    0.00    0.00    0.00    0.06    0.00     0.00    0.00    0.00    0.00
   42    8.88    0.83    0.02    0.02    0.18    0.00  155.52    1.89    2.13    0.87    0.02    0.00    0.00    0.04    0.00     0.03    0.00    0.00    0.00
   43    1.00    0.01    0.02    0.02    0.11    0.00  155.53    0.86    0.99    0.05    0.00    0.00    0.00    0.02    0.00     0.00    0.00    0.00    0.00
   44    0.00    0.00    0.02    0.02    0.06    0.00  153.94    1.54    1.71    0.04    0.00    0.00    0.00    0.01    0.00     0.00    0.00    0.00    0.00
   45    0.00    0.00    0.02    0.02    0.01    0.00  152.16    1.76    1.96    0.04    0.00    0.00    0.00    0.00    0.00     0.00    0.00    0.00    0.00
   46    0.00    0.00    0.02    0.02    0.00    0.00  150.60    1.56    1.81    0.04    0.00    0.00    0.00    0.00    0.00     0.00    0.00    0.00    0.00
   47    0.00    0.00    0.01    0.02    0.00    0.00  149.25    1.35    1.66    0.04    0.00    0.00    0.00    0.00    0.00     0.00    0.00    0.00    0.00
   48    0.00    0.00    0.01    0.02    0.00    0.00  148.07    1.18    1.52    0.04    0.00    0.00    0.00    0.00    0.00     0.00    0.00    0.00    0.00
   49    8.77    0.82    0.02    0.02    0.00    0.00  154.16    1.81    2.03    0.86    0.04    0.01    0.00    0.00    0.00     0.05    0.00    0.01    0.00
   50    2.37    0.09    0.02    0.02    0.00    0.00  154.00    2.43    2.71    0.13    0.00    0.00    0.00    0.00    0.00     0.00    0.00    0.00    0.00
   51    0.00    0.00    0.02    0.02    0.00    0.00  150.39    3.61    3.99    0.04    0.00    0.00    0.00    0.00    0.00     0.00    0.00    0.00    0.00
   52   15.12    1.39    0.02    0.03    1.22    0.00  159.51    3.24    4.08    1.44    0.02    0.01    0.00    0.21    0.00     0.03    0.00    0.00    0.00
   53    0.15    0.00    0.02    0.03    0.81    0.00  157.35    1.49    2.13    0.05    0.00    0.00    0.00    0.13    0.00     0.00    0.00    0.00    0.00
   54    0.00    0.00    0.02    0.03    0.47    0.00  155.37    1.50    2.20    0.05    0.00    0.00    0.00    0.07    0.00     0.00    0.00    0.00    0.00
   55    7.79    0.69    0.02    0.03    0.24    0.00  160.93    1.25    1.41    0.74    0.04    0.01    0.00    0.04    0.00     0.05    0.00    0.01    0.00
   56    0.00    0.00    0.02    0.03    0.12    0.00  157.30    3.51    3.86    0.05    0.00    0.00    0.00    0.02    0.00     0.00    0.00    0.00    0.00
   57    2.30    0.04    0.02    0.03    0.01    0.00  156.70    2.85    3.37    0.09    0.00    0.00    0.00    0.00    0.00     0.00    0.00    0.00    0.00
   58    0.93    0.00    0.02    0.04    0.00    0.00  155.79    1.83    2.44    0.06    0.00    0.00    0.00    0.00    0.00     0.00    0.00    0.00    0.00
   59    0.00    0.00    0.02    0.04    0.00    0.00  154.05    1.74    2.45    0.05    0.00    0.00    0.00    0.00    0.00     0.00    0.00    0.00    0.00
   60    0.00    0.00    0.02    0.04    0.00    0.00  152.31    1.74    2.57    0.05    0.00    0.00    0.00    0.00    0.00     0.00    0.00    0.00    0.00
    2   67.73    4.81    0.49    0.68    4.05    0.00  152.31   47.86   61.47    5.99    0.15    0.04    0.01    0.72    0.00     0.20    0.00    0.03    0.00
   61    0.00    0.00    0.02    0.04    0.00    0.00  150.23    2.08    3.19    0.05    0.00    0.00    0.00    0.00    0.00     0.00    0.00    0.00    0.00
   62    1.50    0.03    0.02    0.04    0.00    0.00  149.10    2.61    2.91    0.08    0.00    0.00    0.00    0.00    0.00     0.00    0.00    0.00    0.00
   63    0.00    0.00    0.01    0.04    0.00    0.00  147.22    1.87    2.79    0.05    0.00    0.00    0.00    0.00    0.00     0.00    0.00    0.00    0.00
   64    0.00    0.00    0.01    0.04    0.00    0.00  144.68    2.55    4.04    0.05    0.00    0.00    0.00    0.00    0.00     0.00    0.00    0.00    0.00
   65    0.00    0.00    0.01    0.04    0.00    0.00  141.88    2.80    4.76    0.05    0.00    0.00    0.00    0.00    0.00     0.00    0.00    0.00    0.00
   66    7.10    0.21    0.01    0.04    0.00    0.00  145.47    3.26    4.14    0.27    0.00    0.00    0.00    0.00    0.00     0.01    0.00    0.00    0.00
   67    5.01    0.11    0.02    0.04    0.00    0.00  147.93    2.42    3.26    0.16    0.00    0.00    0.00    0.00    0.00     0.00    0.00    0.00    0.00
   68    0.78    0.00    0.01    0.04    0.00    0.00  145.94    2.77    4.71    0.06    0.00    0.00    0.00    0.00    0.00     0.00    0.00    0.00    0.00
   69    0.90    0.00    0.01    0.04    0.00    0.00  145.19    1.64    1.99    0.06    0.00    0.00    0.00    0.00    0.00     0.00    0.00    0.00    0.00
   70    0.00    0.00    0.01    0.04    0.00    0.00  143.61    1.58    2.50    0.06    0.00    0.00    0.00    0.00    0.00     0.00    0.00    0.00    0.00
   71    0.00    0.00    0.01    0.04    0.00    0.00  141.80    1.81    3.08    0.06    0.00    0.00    0.00    0.00    0.00     0.00    0.00    0.00    0.00
   72    1.11    0.01    0.01    0.04    0.00    0.00  139.83    3.08    5.78    0.06    0.00    0.00    0.00    0.00    0.00     0.00    0.00    0.00    0.00
   73    4.17    0.10    0.01    0.04    0.00    0.00  141.92    1.96    3.91    0.15    0.00    0.00    0.00    0.00    0.00     0.00    0.00    0.00    0.00
   74    0.76    0.00    0.01    0.04    0.00    0.00  140.69    1.98    3.98    0.06    0.00    0.00    0.00    0.00    0.00     0.00    0.00    0.00    0.00
   75    7.59    0.27    0.02    0.04    0.79    0.00  146.15    0.98    2.30    0.33    0.01    0.00    0.00    0.17    0.00     0.01    0.00    0.00    0.00
   76    0.75    0.00    0.02    0.04    0.61    0.00  144.53    1.75    3.64    0.06    0.00    0.00    0.00    0.13    0.00     0.00    0.00    0.00    0.00
   77    7.93    0.71    0.02    0.04    0.37    0.00  149.05    2.29    2.55    0.77    0.03    0.01    0.00    0.07    0.00     0.04    0.00    0.00    0.00
   78   23.08    2.73    0.04    0.04    0.20    0.00  167.55    1.47    1.63    2.81    0.14    0.01    0.00    0.04    0.00     0.19    0.00    0.02    0.00
   79    0.00    0.00    0.03    0.05    0.08    0.00  163.72    3.76    4.05    0.08    0.00    0.00    0.00    0.02    0.00     0.00    0.00    0.00    0.00
   80    1.38    0.02    0.02    0.05    0.00    0.00  162.31    2.77    3.02    0.09    0.00    0.00    0.00    0.00    0.00     0.00    0.00    0.00    0.00
   81    0.00    0.00    0.02    0.05    0.00    0.00  157.60    4.70    5.43    0.07    0.00    0.00    0.00    0.00    0.00     0.00    0.00    0.00    0.00
   82    7.76    0.25    0.02    0.05    0.25    0.00  161.84    2.97    4.01    0.32    0.01    0.00    0.00    0.05    0.00     0.01    0.00    0.00    0.00
   83    0.00    0.00    0.02    0.05    0.15    0.00  159.67    2.02    2.91    0.07    0.00    0.00    0.00    0.03    0.00     0.00    0.00    0.00    0.00
   84    0.00    0.00    0.02    0.05    0.06    0.00  156.78    2.82    4.21    0.07    0.00    0.00    0.00    0.01    0.00     0.00    0.00    0.00    0.00
   85    0.00    0.00    0.02    0.05    0.00    0.00  153.69    3.09    4.85    0.07    0.00    0.00    0.00    0.00    0.00     0.00    0.00    0.00    0.00
   86    1.27    0.01    0.02    0.05    0.00    0.00  152.68    2.27    3.93    0.08    0.00    0.00    0.00    0.00    0.00     0.00    0.00    0.00    0.00
   87    1.35    0.01    0.02    0.05    0.00    0.00  151.84    2.17    3.95    0.08    0.00    0.00    0.00    0.00    0.00     0.00    0.00    0.00    0.00
   88    0.00    0.00    0.02    0.05    0.00    0.00  148.92    2.92    5.10    0.07    0.00    0.00    0.00    0.00    0.00     0.00    0.00    0.00    0.00
   89    0.00    0.00    0.02    0.05    0.00    0.00  146.85    2.07    3.71    0.07    0.00    0.00    0.00    0.00    0.00     0.00    0.00    0.00    0.00
   90    5.57    0.12    0.02    0.05    0.00    0.00  151.18    1.09    1.30    0.18    0.00    0.00    0.00    0.00    0.00     0.01    0.00    0.00    0.00
   91    0.00    0.00    0.02    0.05    0.00    0.00  149.76    1.42    2.15    0.07    0.00    0.00    0.00    0.00    0.00     0.00    0.00    0.00    0.00
    3   78.03    4.58    0.53    1.38    2.51    0.00  149.76   72.99  109.79    6.49    0.20    0.03    0.01    0.52    0.00     0.27    0.00    0.04    0.00
   92    0.00    0.00    0.01    0.05    0.00    0.00  147.28    2.48    4.09    0.06    0.00    0.00    0.00    0.00    0.00     0.00    0.00    0.00    0.00
   93    0.00    0.00    0.01    0.05    0.00    0.00  144.47    2.81    5.04    0.06    0.00    0.00    0.00    0.00    0.00     0.00    0.00    0.00    0.00
   94    0.00    0.00    0.01    0.05    0.00    0.00  142.05    2.43    4.56    0.06    0.00    0.00    0.00    0.00    0.00     0.00    0.00    0.00    0.00
   95    0.00    0.00    0.01    0.05    0.00    0.00  138.97    3.08    5.91    0.06    0.00    0.00    0.00    0.00    0.00     0.00    0.00    0.00    0.00
   96    0.00    0.00    0.01    0.05    0.00    0.00  135.77    3.20    6.37    0.06    0.00    0.00    0.00    0.00    0.00     0.00    0.00    0.00    0.00
   97    1.21    0.01    0.01    0.05    0.00    0.00  134.61    2.36    4.96    0.07    0.00    0.00    0.00    0.00    0.00     0.00    0.00    0.00    0.00
   98    4.87    0.12    0.01    0.05    0.00    0.00  137.09    2.24    4.93    0.18    0.01    0.00    0.00    0.00    0.00     0.01    0.00    0.00    0.00
   99    0.00    0.00    0.01    0.05    0.00    0.00  134.58    2.51    5.07    0.06    0.00    0.00    0.00    0.00    0.00     0.00    0.00    0.00    0.00
  100    3.32    0.17    0.01    0.05    0.00    0.00  133.95    3.76    5.43    0.23    0.01    0.01    0.00    0.00    0.00     0.01    0.00    0.00    0.00
  101    0.00    0.00    0.01    0.05    0.00    0.00  131.02    2.93    5.66    0.06    0.00    0.00    0.00    0.00    0.00     0.00    0.00    0.00    0.00
  102    0.44    0.00    0.01    0.05    0.00    0.00  129.39    2.08    3.46    0.06    0.00    0.00    0.00    0.00    0.00     0.00    0.00    0.00    0.00
  103    7.64    0.53    0.01    0.04    0.00    0.00  135.54    0.94    1.07    0.58    0.03    0.00    0.00    0.00    0.00     0.03    0.00    0.00    0.00
  104    0.51    0.00    0.01    0.04    0.00    0.00  134.29    1.76    2.61    0.06    0.00    0.00    0.00    0.00    0.00     0.00    0.00    0.00    0.00
  105    0.16    0.00    0.01    0.04    0.00    0.00  131.87    2.58    3.94    0.06    0.00    0.00    0.00    0.00    0.00     0.00    0.00    0.00    0.00
  106    9.19    0.87    0.02    0.04    0.00    0.00  135.18    4.97    5.68    0.93    0.09    0.00    0.00    0.00    0.00     0.09    0.00    0.01    0.00
  107    0.00    0.00    0.01    0.04    0.00    0.00  131.61    3.57    5.10    0.06    0.00    0.00    0.00    0.00    0.00     0.00    0.00    0.00    0.00
  108    0.00    0.00    0.01    0.04    0.00    0.00  128.25    3.36    5.58    0.05    0.00    0.00    0.00    0.00    0.00     0.00    0.00    0.00    0.00
  109    0.00    0.00    0.01    0.04    0.00    0.00  124.89    3.36    6.03    0.05    0.00    0.00    0.00    0.00    0.58     0.00    0.00    0.00    0.00
  110    0.00    0.00    0.01    0.04    0.00    0.00  121.15    3.73    7.00    0.05    0.00    0.00    0.00    0.00    1.06     0.00    0.00    0.00    0.00
  111    0.00    0.00    0.01    0.04    0.00    0.00  118.08    3.08    5.85    0.05    0.00    0.00    0.00    0.00    1.46     0.00    0.00    0.00    0.00
  112    0.00    0.00    0.01    0.04    0.00    0.00  115.09    2.99    6.14    0.05    0.00    0.00    0.00    0.00    1.80     0.00    0.00    0.00    0.00
  113    0.00    0.00    0.01    0.04    0.00    0.00  111.95    3.14    6.88    0.05    0.00    0.00    0.00    0.00    2.22     0.00    0.00    0.00    0.00
  114    0.00    0.00    0.01    0.04    0.00    0.00  108.91    3.04    6.70    0.05    0.00    0.00    0.00    0.00    2.49     0.00    0.00    0.00    0.00
  115    0.00    0.00    0.01    0.04    0.00    0.00  106.22    2.68    5.75    0.05    0.00    0.00    0.00    0.00    2.85     0.00    0.00    0.00    0.00
  116    0.00    0.00    0.01    0.04    0.00    0.00  103.77    2.45    5.80    0.04    0.00    0.00    0.00    0.00    1.33     0.00    0.00    0.00    0.00
  117    6.99    0.20    0.01    0.04    0.00    0.00  108.41    2.12    3.64    0.24    0.00    0.00    0.00    0.00    0.42     0.01    0.00    0.00    0.00
  118    0.00    0.00    0.01    0.03    0.00    0.00  105.58    2.83    5.37    0.04    0.00    0.00    0.00    0.00    2.86     0.00    0.00    0.00    0.00
  119    0.00    0.00    0.01    0.03    0.00    0.00  103.15    2.43    4.82    0.04    0.00    0.00    0.00    0.00    0.10     0.00    0.00    0.00    0.00
  120    0.00    0.00    0.01    0.03    0.00    0.00  100.79    2.35    4.86    0.04    0.00    0.00    0.00    0.00    3.09     0.00    0.00    0.00    0.00
  121    1.71    0.02    0.01    0.03    0.00    0.00   99.77    2.71    4.42    0.06    0.00    0.00    0.00    0.00    2.72     0.00    0.00    0.00    0.00
    4   36.05    1.91    0.35    1.26    0.00    0.00   99.77   83.98  152.71    3.52    0.14    0.02    0.00    0.00   22.98     0.15    0.00    0.02    0.00
  122    0.00    0.00    0.01    0.03    0.00    0.00   97.44    2.33    4.72    0.04    0.00    0.00    0.00    0.00    2.46     0.00    0.00    0.00    0.00
  123    0.00    0.00    0.01    0.03    0.00    0.00   95.28    2.16    5.28    0.04    0.00    0.00    0.00    0.00    3.84     0.00    0.00    0.00    0.00
  124    0.35    0.00    0.01    0.03    0.00    0.00   93.52    2.11    4.14    0.04    0.00    0.00    0.00    0.00    1.75     0.00    0.00    0.00    0.00
  125    0.00    0.00    0.01    0.03    0.00    0.00   91.64    1.88    4.75    0.04    0.00    0.00    0.00    0.00    0.07     0.00    0.00    0.00    0.00
  126    0.51    0.00    0.01    0.03    0.00    0.00   90.22    1.92    4.32    0.04    0.00    0.00    0.00    0.00    1.02     0.00    0.00    0.00    0.00
  127    7.33    0.21    0.01    0.03    0.00    0.00   94.60    2.71    4.66    0.24    0.00    0.26    0.00    0.00    1.18     0.00    0.00    0.00    0.00
  128    0.00    0.00    0.01    0.03    0.00    0.00   91.06    3.54    6.58    0.04    0.00    0.00    0.00    0.00    1.92     0.00    0.00    0.00    0.00
  129    0.00    0.00    0.01    0.03    0.00    0.00   88.11    2.95    6.87    0.03    0.00    0.00    0.00    0.00    2.29     0.00    0.00    0.00    0.00
  130    0.00    0.00    0.01    0.03    0.00    0.00   85.41    2.70    5.97    0.03    0.00    0.00    0.00    0.00    2.48     0.00    0.00    0.00    0.00
  131    0.00    0.00    0.01    0.03    0.00    0.00   82.80    2.61    6.12    0.03    0.00    0.00    0.00    0.00    2.66     0.00    0.00    0.00    0.00
  132    0.00    0.00    0.01    0.03    0.00    0.00   80.04    2.76    6.78    0.03    0.00    0.00    0.00    0.00    2.83     0.00    0.00    0.00    0.00
  133   10.21    0.96    0.01    0.02    0.00    0.00   85.31    3.94    5.01    1.00    0.01    0.99    0.00    0.00    2.29     0.01    0.00    0.00    0.00
  134    0.00    0.00    0.01    0.02    0.00    0.00   81.91    3.40    6.10    0.03    0.00    0.00    0.00    0.00    7.53     0.00    0.00    0.00    0.00
  135    0.00    0.00    0.01    0.02    0.00    0.00   78.51    3.40    6.23    0.03    0.00    0.00    0.00    0.00    8.55     0.00    0.00    0.00    0.00
  136    0.95    0.00    0.01    0.02    0.00    0.00   75.83    3.63    5.61    0.03    0.00    0.00    0.00    0.00    8.24     0.00    0.00    0.00    0.00
  137    6.13    0.43    0.01    0.02    0.00    0.00   77.50    4.01    4.98    0.46    0.00    0.08    0.00    0.00    7.43     0.00    0.00    0.00    0.00
  138    0.18    0.00    0.01    0.02    0.00    0.00   74.80    2.88    4.50    0.03    0.00    0.00    0.00    0.00    6.84     0.00    0.00    0.00    0.00
  139    0.99    0.00    0.01    0.02    0.00    0.00   72.28    3.51    5.09    0.03    0.00    0.00    0.00    0.00    7.60     0.00    0.00    0.00    0.00
  140    8.31    0.17    0.01    0.02    0.00    0.00   75.36    5.02    4.62    0.20    0.00    0.01    0.00    0.00    6.56     0.00    0.00    0.00    0.00
  141    2.47    0.02    0.01    0.02    0.00    0.00   75.17    2.64    1.89    0.05    0.00    0.00    0.00    0.00    2.93     0.00    0.00    0.00    0.00
  142    0.00    0.00    0.01    0.02    0.00    0.00   70.79    4.38    6.37    0.03    0.00    0.00    0.00    0.00    6.28     0.00    0.00    0.00    0.00
  143    0.00    0.00    0.01    0.02    0.00    0.00   68.31    2.48    6.79    0.03    0.00    0.00    0.00    0.00    2.84     0.00    0.00    0.00    0.00
  144    2.76    0.05    0.01    0.02    0.00    0.00   66.88    4.13    4.46    0.08    0.00    0.00    0.00    0.00    1.06     0.00    0.00    0.00    0.00
  145    0.18    0.00    0.01    0.02    0.00    0.00   64.20    2.86    5.87    0.03    0.00    0.00    0.00    0.00    1.17     0.00    0.00    0.00    0.00
  146    0.00    0.00    0.01    0.02    0.00    0.00   61.47    2.73    7.29    0.02    0.00    0.00    0.00    0.00    0.55     0.00    0.00    0.00    0.00
  147    0.00    0.00    0.01    0.02    0.00    0.00   58.97    2.50    7.90    0.02    0.00    0.00    0.00    0.00    0.26     0.00    0.00    0.00    0.00
  148    0.60    0.00    0.01    0.02    0.00    0.00   56.94    2.63    5.59    0.02    0.00    0.00    0.00    0.00    0.23     0.00    0.00    0.00    0.00
  149    0.00    0.00    0.01    0.02    0.00    0.00   54.74    2.21    7.46    0.02    0.00    0.00    0.00    0.00    0.20     0.00    0.00    0.00    0.00
  150    0.00    0.00    0.01    0.02    0.00    0.00   52.66    2.08    6.32    0.02    0.00    0.00    0.00    0.00    0.22     0.00    0.00    0.00    0.00
  151    5.52    0.30    0.01    0.02    0.00    0.00   54.01    3.85    3.78    0.32    0.00    0.01    0.00    0.00    0.20     0.00    0.00    0.00    0.00
  152    9.15    0.66    0.01    0.02    0.00    0.00   58.14    4.33    3.46    0.68    0.00    0.00    0.00    0.00    0.17     0.00    0.00    0.00    0.00
    5   55.65    2.79    0.25    0.70    0.00    0.00   58.14   94.29  169.51    3.74    0.01    1.37    0.01    0.00   93.65     0.02    0.00    0.00    0.00
  153    5.73    0.11    0.01    0.01    0.00    0.00   56.94    6.79    7.63    0.14    0.00    0.00    0.00    0.00    0.68     0.00    0.00    0.00    0.00
  154    3.88    0.05    0.01    0.01    0.00    0.00   54.76    6.00    6.67    0.07    0.00    0.00    0.00    0.00    2.35     0.00    0.00    0.00    0.00
  155    1.53    0.00    0.01    0.01    0.00    0.00   50.32    5.96    7.20    0.02    0.00    0.00    0.00    0.00    0.39     0.00    0.00    0.00    0.00
  156   23.64    2.16    0.02    0.01    0.00    0.00   65.06    6.65    3.97    2.18    0.00    0.01    0.00    0.00    0.13     0.01    0.00    0.00    0.00
  157    7.11    0.15    0.01    0.01    0.00    0.00   66.99    5.00    3.53    0.18    0.00    0.00    0.00    0.00    0.31     0.00    0.00    0.00    0.00
  158    2.41    0.01    0.01    0.01    0.00    0.00   64.51    4.88    4.02    0.04    0.00    0.00    0.00    0.00    0.07     0.00    0.00    0.00    0.00
  159    2.26    0.00    0.01    0.01    0.00    0.00   61.53    5.23    4.87    0.03    0.00    0.00    0.00    0.00    0.17     0.00    0.00    0.00    0.00
  160    9.64    0.76    0.01    0.01    0.00    0.00   64.90    5.47    4.73    0.78    0.00    0.00    0.00    0.00    0.16     0.00    0.00    0.00    0.00
  161    0.00    0.00    0.01    0.01    0.00    0.00   59.19    5.71    6.72    0.02    0.00    0.00    0.00    0.00    0.21     0.00    0.00    0.00    0.00
  162    0.00    0.00    0.01    0.01    0.00    0.00   53.37    5.83    7.61    0.02    0.00    0.00    0.00    0.00    0.14     0.00    0.00    0.00    0.00
  163    3.57    0.03    0.01    0.01    0.00    0.00   50.20    6.70    6.53    0.06    0.00    0.00    0.00    0.00    0.20     0.00    0.00    0.00    0.00
  164   33.32    4.01    0.03    0.01    0.00    0.00   72.27    7.01    6.15    4.05    0.01    0.02    0.00    0.00    0.31     0.01    0.00    0.00    0.00
  165    0.00    0.00    0.02    0.01    0.00    0.00   67.11    5.15    6.01    0.04    0.00    0.00    0.00    0.00    0.63     0.00    0.00    0.00    0.00
  166    0.00    0.00    0.02    0.01    0.00    0.00   62.23    4.88    6.20    0.03    0.00    0.00    0.00    0.00    0.13     0.00    0.00    0.00    0.00
  167    3.18    0.03    0.02    0.01    0.00    0.00   60.01    5.37    4.81    0.06    0.00    0.00    0.00    0.00    0.11     0.00    0.00    0.00    0.00
  168   15.69    0.59    0.02    0.01    0.00    0.00   67.98    7.08    3.60    0.62    0.00    0.00    0.00    0.00    0.09     0.00    0.00    0.00    0.00
  169   26.47    2.35    0.04    0.01    0.00    0.00   84.22    7.71    4.19    2.39    0.00    0.00    0.00    0.00    0.09     0.00    0.00    0.00    0.00
  170    0.00    0.00    0.03    0.01    0.00    0.00   76.31    7.91    8.23    0.04    0.00    0.00    0.00    0.00    0.21     0.00    0.00    0.00    0.00
  171    3.45    0.04    0.02    0.01    0.00    0.00   71.71    8.00    6.80    0.08    0.00    0.00    0.00    0.00    0.02     0.00    0.00    0.00    0.00
  172    5.87    0.26    0.02    0.01    0.00    0.00   69.94    7.37    6.27    0.29    0.00    0.00    0.00    0.00    0.04     0.00    0.00    0.00    0.00
  173    0.00    0.00    0.02    0.01    0.00    0.00   64.31    5.63    6.61    0.03    0.00    0.00    0.00    0.00    0.09     0.00    0.00    0.00    0.00
  174    0.00    0.00    0.02    0.01    0.00    0.00   58.72    5.59    6.84    0.03    0.00    0.00    0.00    0.00    0.06     0.00    0.00    0.00    0.00
  175    5.90    0.11    0.02    0.01    0.00    0.00   57.67    6.82    5.54    0.13    0.00    0.00    0.00    0.00    0.05     0.00    0.00    0.00    0.00
  176   45.46    5.43    0.05    0.01    0.00    0.00   89.53    7.87    4.21    5.48    0.01    0.01    0.00    0.00    0.04     0.01    0.00    0.00    0.00
  177   28.57    3.08    0.06    0.01    0.00    0.00  106.92    7.88    4.48    3.15    0.00    0.01    0.00    0.00    0.37     0.01    0.00    0.00    0.00
  178    7.13    0.10    0.05    0.01    0.00    0.00  106.69    7.24    3.95    0.15    0.00    0.00    0.00    0.00    0.24     0.00    0.00    0.00    0.00
  179    1.34    0.00    0.04    0.01    0.00    0.00  101.22    6.81    5.69    0.04    0.00    0.00    0.00    0.00    0.04     0.00    0.00    0.00    0.00
  180    7.63    0.17    0.03    0.01    0.00    0.00  102.14    6.51    4.81    0.21    0.00    0.00    0.00    0.00    0.02     0.00    0.00    0.00    0.00
  181    1.44    0.00    0.03    0.01    0.00    0.00   96.30    7.27    6.20    0.04    0.00    0.00    0.00    0.00    0.04     0.00    0.00    0.00    0.00
  182    4.85    0.01    0.03    0.01    0.00    0.00   95.04    6.10    2.45    0.04    0.00    0.00    0.00    0.00    0.02     0.00    0.00    0.00    0.00
    6  250.06   19.45    0.69    0.30    0.00    0.00   95.04  192.43  166.53   20.44    0.02    0.05    0.01    0.00    7.39     0.04    0.00    0.01    0.00
  183    4.83    0.03    0.03    0.01    0.00    0.00   93.88    5.95    3.03    0.06    0.00    0.00    0.00    0.00    0.03     0.00    0.00    0.00    0.00
  184    1.08    0.00    0.03    0.01    0.00    0.00   88.35    6.61    5.88    0.03    0.00    0.00    0.00    0.00    0.03     0.00    0.00    0.00    0.00
  185    0.18    0.00    0.02    0.01    0.00    0.00   84.11    4.43    4.60    0.03    0.00    0.00    0.00    0.00    0.02     0.00    0.00    0.00    0.00
  186    0.00    0.00    0.02    0.01    0.00    0.00   78.27    5.83    6.90    0.03    0.00    0.00    0.00    0.00    0.02     0.00    0.00    0.00    0.00
  187    4.20    0.02    0.02    0.01    0.00    0.00   75.53    6.92    4.16    0.04    0.00    0.00    0.00    0.00    0.01     0.00    0.00    0.00    0.00
  188    1.71    0.00    0.02    0.01    0.00    0.00   69.94    7.30    6.53    0.03    0.00    0.00    0.00    0.00    0.02     0.00    0.00    0.00    0.00
  189    0.00    0.00    0.02    0.01    0.00    0.00   63.03    6.92    8.56    0.03    0.00    0.00    0.00    0.00    0.01     0.00    0.00    0.00    0.00
  190    0.18    0.00    0.02    0.01    0.00    0.00   57.90    5.30    5.89    0.03    0.00    0.00    0.00    0.00    0.01     0.00    0.00    0.00    0.00
  191   10.70    0.28    0.02    0.00    0.00    0.00   60.47    7.80    6.37    0.31    0.00    0.00    0.00    0.00    0.46     0.00    0.00    0.00    0.00
  192    3.08    0.02    0.02    0.00    0.00    0.00   56.12    7.40    5.72    0.04    0.00    0.00    0.00    0.00    0.37     0.00    0.00    0.00    0.00
  193    2.56    0.01    0.02    0.00    0.00    0.00   50.94    7.74    6.39    0.03    0.00    0.00    0.00    0.00    0.51     0.00    0.00    0.00    0.00
  194    2.84    0.01    0.02    0.00    0.00    0.00   46.99    6.78    5.71    0.03    0.00    0.00    0.00    0.00    0.37     0.00    0.00    0.00    0.00
  195    0.00    0.00    0.02    0.00    0.00    0.00   40.52    6.47    7.68    0.02    0.00    0.00    0.00    0.00    0.37     0.00    0.00    0.00    0.00
  196    0.00    0.00    0.02    0.00    0.00    0.00   34.42    6.11    8.24    0.02    0.00    0.00    0.00    0.00    0.02     0.00    0.00    0.00    0.00
  197    3.41    0.02    0.02    0.00    0.00    0.00   30.25    7.56    8.67    0.05    0.00    0.00    0.00    0.00    0.02     0.00    0.00    0.00    0.00
  198    0.58    0.00    0.02    0.00    0.00    0.00   25.56    5.27    7.31    0.02    0.00    0.00    0.00    0.00    0.03     0.00    0.00    0.00    0.00
  199    1.85    0.00    0.02    0.00    0.00    0.00   21.71    5.69    5.69    0.02    0.00    0.00    0.00    0.00    0.03     0.00    0.00    0.00    0.00
  200   21.96    1.19    0.02    0.00    0.00    0.00   34.29    8.09    4.73    1.22    0.00    0.00    0.00    0.00    0.03     0.00    0.00    0.00    0.00
  201    0.00    0.00    0.02    0.00    0.00    0.00   28.57    5.72    7.15    0.02    0.00    0.00    0.00    0.00    0.14     0.00    0.00    0.00    0.00
  202   14.73    1.35    0.02    0.00    0.00    0.00   34.96    6.93    5.86    1.38    0.00    0.00    0.00    0.00    0.03     0.00    0.00    0.00    0.00
  203    2.55    0.00    0.02    0.00    0.00    0.00   30.52    6.98    5.68    0.03    0.00    0.00    0.00    0.00    0.13     0.00    0.00    0.00    0.00
  204   22.13    0.96    0.03    0.00    0.00    0.00   44.29    7.29    3.61    0.99    0.00    0.00    0.00    0.00    0.03     0.00    0.00    0.00    0.00
  205    0.00    0.00    0.02    0.00    0.00    0.00   36.57    7.72    8.17    0.03    0.00    0.00    0.00    0.00    0.12     0.00    0.00    0.00    0.00
  206    0.00    0.00    0.02    0.00    0.00    0.00   29.69    6.88    8.23    0.02    0.00    0.00    0.00    0.00    0.02     0.00    0.00    0.00    0.00
  207    0.00    0.00    0.02    0.00    0.00    0.00   24.49    5.19    7.84    0.02    0.00    0.00    0.00    0.00    0.03     0.00    0.00    0.00    0.00
  208   28.21    1.03    0.03    0.00    0.00    0.00   45.38    6.03    5.68    1.06    0.00    0.00    0.00    0.00    0.05     0.00    0.00    0.00    0.00
  209    4.45    0.10    0.03    0.00    0.00    0.00   43.28    6.44    5.07    0.14    0.00    0.00    0.00    0.00    0.14     0.00    0.00    0.00    0.00
  210    3.31    0.02    0.03    0.00    0.00    0.00   40.37    6.19    4.96    0.05    0.00    0.00    0.00    0.00    0.07     0.00    0.00    0.00    0.00
  211    2.65    0.00    0.03    0.00    0.00    0.00   38.09    4.93    3.24    0.03    0.00    0.00    0.00    0.00    0.07     0.00    0.00    0.00    0.00
  212   11.20    0.26    0.03    0.00    0.00    0.00   41.96    7.04    3.77    0.29    0.00    0.00    0.00    0.00    0.01     0.00    0.00    0.00    0.00
  213   21.59    2.06    0.04    0.00    0.00    0.00   53.64    7.75    4.37    2.10    0.00    0.00    0.00    0.00    0.06     0.01    0.00    0.00    0.00
    7  169.97    7.38    0.71    0.13    0.00    0.00   53.64  203.25  185.68    8.21    0.01    0.02    0.00    0.00    3.25     0.02    0.00    0.00    0.00
  214    0.90    0.00    0.03    0.00    0.00    0.00   48.50    6.04    5.61    0.04    0.00    0.00    0.00    0.00    0.19     0.00    0.00    0.00    0.00
  215    6.01    0.17    0.03    0.00    0.00    0.00   47.41    6.93    4.54    0.20    0.00    0.00    0.00    0.00    0.04     0.00    0.00    0.00    0.00
  216    2.92    0.00    0.03    0.00    0.00    0.00   43.84    6.49    4.24    0.03    0.00    0.00    0.00    0.00    0.06     0.00    0.00    0.00    0.00
  217    4.39    0.10    0.03    0.00    0.00    0.00   41.40    6.73    5.30    0.13    0.00    0.00    0.00    0.00    0.02     0.00    0.00    0.00    0.00
  218    0.00    0.00    0.02    0.00    0.00    0.00   35.96    5.44    6.92    0.03    0.00    0.00    0.00    0.00    0.07     0.00    0.00    0.00    0.00
  219    2.94    0.00    0.02    0.00    0.00    0.00   32.84    6.06    4.74    0.02    0.00    0.00    0.00    0.00    0.07     0.00    0.00    0.00    0.00
  220   16.00    1.29    0.03    0.00    0.00    0.00   39.72    7.77    4.56    1.32    0.00    0.00    0.00    0.00    0.03     0.00    0.00    0.00    0.00
  221    0.71    0.00    0.02    0.00    0.00    0.00   35.62    4.81    4.40    0.03    0.00    0.00    0.00    0.00    0.13     0.00    0.00    0.00    0.00
  222    0.00    0.00    0.02    0.00    0.00    0.00   31.00    4.62    5.49    0.02    0.00    0.00    0.00    0.00    0.04     0.00    0.00    0.00    0.00
  223    0.00    0.00    0.02    0.00    0.00    0.00   26.42    4.58    6.80    0.02    0.00    0.00    0.00    0.00    0.06     0.00    0.00    0.00    0.00
  224    0.00    0.00    0.02    0.00    0.00    0.00   22.42    4.00    6.64    0.02    0.00    0.00    0.00    0.00    0.06     0.00    0.00    0.00    0.00
  225   14.06    1.26    0.03    0.00    0.00    0.00   31.07    4.10    3.60    1.29    0.00    0.00    0.00    0.00    0.06     0.00    0.00    0.00    0.00
  226   11.92    0.54    0.03    0.00    0.00    0.00   35.30    7.10    3.55    0.57    0.00    0.00    0.00    0.00    0.16     0.00    0.00    0.00    0.00
  227   17.06    0.69    0.03    0.00    0.00    0.00   45.75    5.83    2.08    0.73    0.00    0.00    0.00    0.00    0.11     0.00    0.00    0.00    0.00
  228    0.00    0.00    0.03    0.00    0.00    0.00   41.72    4.03    4.72    0.03    0.00    0.00    0.00    0.00    0.10     0.00    0.00    0.00    0.00
  229    0.00    0.00    0.02    0.00    0.00    0.00   36.95    4.77    5.38    0.03    0.00    0.00    0.00    0.00    0.06     0.00    0.00    0.00    0.00
  230    0.00    0.00    0.02    0.00    0.00    0.00   32.39    4.56    5.46    0.02    0.00    0.00    0.00    0.00    0.08     0.00    0.00    0.00    0.00
  231    0.00    0.00    0.02    0.00    0.00    0.00   27.75    4.64    5.67    0.02    0.00    0.00    0.00    0.00    0.08     0.00    0.00    0.00    0.00
  232    0.00    0.00    0.02    0.00    0.00    0.00   22.87    4.88    5.93    0.02    0.00    0.00    0.00    0.00    0.08     0.00    0.00    0.00    0.00
  233   29.05    2.81    0.03    0.00    0.00    0.00   40.74    8.22    4.74    2.85    0.00    0.01    0.00    0.00    0.08     0.01    0.00    0.00    0.00
  234    1.48    0.00    0.03    0.00    0.00    0.00   36.52    5.71    4.84    0.03    0.00    0.00    0.00    0.00    0.04     0.00    0.00    0.00    0.00
  235    0.00    0.00    0.02    0.00    0.00    0.00   31.79    4.73    6.58    0.03    0.00    0.00    0.00    0.00    0.02     0.00    0.00    0.00    0.00
  236    4.02    0.14    0.02    0.00    0.00    0.00   32.06    3.60    3.59    0.17    0.00    0.00    0.00    0.00    0.32     0.00    0.00    0.00    0.00
  237    6.44    0.13    0.02    0.00    0.00    0.00   32.49    5.85    4.46    0.15    0.00    0.00    0.00    0.00    0.18     0.00    0.00    0.00    0.00
  238    0.00    0.00    0.02    0.00    0.00    0.00   27.95    4.54    5.57    0.02    0.00    0.00    0.00    0.00    0.34     0.00    0.00    0.00    0.00
  239    0.06    0.00    0.02    0.00    0.00    0.00   24.40    3.61    5.22    0.02    0.00    0.00    0.00    0.00    0.41     0.00    0.00    0.00    0.00
  240    0.10    0.00    0.02    0.00    0.00    0.00   20.73    3.77    5.09    0.02    0.00    0.00    0.00    0.00    0.43     0.00    0.00    0.00    0.00
  241    0.00    0.00    0.02    0.00    0.00    0.00   16.88    3.86    5.71    0.02    0.00    0.00    0.00    0.00    0.46     0.00    0.00    0.00    0.00
  242    0.73    0.00    0.02    0.00    0.00    0.00   13.75    3.85    4.68    0.02    0.00    0.00    0.00    0.00    0.29     0.00    0.00    0.00    0.00
  243    0.90    0.00    0.02    0.00    0.00    0.00   11.15    3.49    5.55    0.02    0.00    0.00    0.00    0.00    0.31     0.00    0.00    0.00    0.00
  244    3.80    0.12    0.02    0.00    0.00    0.00   11.08    3.75    4.30    0.14    0.00    0.00    0.00    0.00    0.52     0.00    0.00    0.00    0.00
    8  123.49    7.26    0.74    0.05    0.00    0.00   11.08  158.33  155.97    8.04    0.01    0.02    0.00    0.00    4.88     0.02    0.00    0.00    0.00
  245    2.83    0.01    0.02    0.00    0.00    0.00    8.88    5.01    4.57    0.03    0.00    0.00    0.00    0.00    0.32     0.00    0.00    0.00    0.00
  246    3.23    0.02    0.02    0.00    0.00    0.00    7.39    4.69    4.36    0.04    0.00    0.00    0.00    0.00    0.30     0.00    0.00    0.00    0.00
  247    0.00    0.00    0.02    0.00    0.00    0.00    5.27    2.11    4.78    0.02    0.00    0.00    0.00    0.00    0.47     0.00    0.00    0.00    0.00
  248    0.00    0.00    0.02    0.00    0.00    0.00    4.07    1.21    4.83    0.02    0.00    0.00    0.00    0.00    0.48     0.00    0.00    0.00    0.00
  249    0.00    0.00    0.01    0.00    0.00    0.00    2.97    1.10    5.24    0.02    0.00    0.00    0.00    0.00    0.49     0.00    0.00    0.00    0.00
  250    0.00    0.00    0.01    0.00    0.00    0.00    2.44    0.53    4.64    0.01    0.00    0.00    0.00    0.00    0.51     0.00    0.00    0.00    0.00
  251    2.00    0.00    0.01    0.00    0.00    0.00    2.66    1.77    2.92    0.02    0.00    0.00    0.00    0.00    0.26     0.00    0.00    0.00    0.00
  252    1.74    0.00    0.01    0.00    0.00    0.00    2.18    2.22    3.72    0.01    0.00    0.00    0.00    0.00    0.06     0.00    0.00    0.00    0.00
  253    0.00    0.00    0.01    0.00    0.00    0.00    1.04    1.14    5.68    0.01    0.00    0.00    0.00    0.00    0.06     0.00    0.00    0.00    0.00
  254    0.00    0.00    0.01    0.00    0.00    0.00    0.31    0.73    4.25    0.01    0.00    0.00    0.00    0.00    0.06     0.00    0.00    0.00    0.00
  255    2.00    0.00    0.01    0.00    0.00    0.00    0.60    1.69    3.63    0.02    0.00    0.00    0.00    0.00    0.04     0.00    0.00    0.00    0.00
  256    0.04    0.00    0.01    0.00    0.00    0.00    0.49    0.16    3.00    0.01    0.00    0.00    0.00    0.00    0.02     0.00    0.00    0.00    0.00
  257    5.88    0.11    0.01    0.00    0.00    0.00    2.26    3.99    2.40    0.13    0.00    0.00    0.00    0.00    0.00     0.00    0.00    0.00    0.00
  258    4.49    0.02    0.01    0.00    0.00    0.00    2.93    3.79    2.13    0.04    0.00    0.00    0.00    0.00    0.00     0.00    0.00    0.00    0.00
  259    2.06    0.01    0.01    0.00    0.00    0.00    2.39    2.60    3.58    0.02    0.00    0.00    0.00    0.00    0.00     0.00    0.00    0.00    0.00
  260    2.32    0.02    0.01    0.00    0.00    0.00    3.02    1.67    3.38    0.03    0.00    0.00    0.00    0.00    0.00     0.00    0.00    0.00    0.00
  261    3.88    0.08    0.01    0.00    0.00    0.00    4.33    2.48    2.82    0.09    0.00    0.00    0.00    0.00    0.00     0.00    0.00    0.00    0.00
  262   13.61    1.45    0.02    0.00    0.00    0.00   13.04    3.40    6.75    1.47    0.00    0.00    0.00    0.00    0.00     0.00    0.00    0.00    0.00
  263    0.00    0.00    0.01    0.00    0.00    0.00   11.22    1.82    5.97    0.02    0.00    0.00    0.00    0.00    0.00     0.00    0.00    0.00    0.00
  264    0.00    0.00    0.01    0.00    0.00    0.00   10.11    1.11    4.84    0.01    0.00    0.00    0.00    0.00    0.01     0.00    0.00    0.00    0.00
  265    0.00    0.00    0.01    0.00    0.00    0.00    9.25    0.85    4.23    0.01    0.00    0.00    0.00    0.00    0.01     0.00    0.00    0.00    0.00
  266    0.00    0.00    0.01    0.00    0.00    0.00    8.54    0.71    3.71    0.01    0.00    0.00    0.00    0.00    0.01     0.00    0.00    0.00    0.00
  267    0.00    0.00    0.01    0.00    0.00    0.00    7.73    0.81    4.71    0.01    0.00    0.00    0.00    0.00    0.01     0.00    0.00    0.00    0.00
  268    2.03    0.03    0.01    0.00    0.00    0.00    7.52    2.22    3.95    0.04    0.00    0.00    0.00    0.00    0.01     0.00    0.00    0.00    0.00
  269    2.00    0.03    0.01    0.00    0.00    0.00    7.54    1.94    3.37    0.04    0.00    0.00    0.00    0.00    0.00     0.00    0.00    0.00    0.00
  270    0.00    0.00    0.01    0.00    0.00    0.00    6.92    0.62    4.18    0.01    0.00    0.00    0.00    0.00    0.00     0.00    0.00    0.00    0.00
  271    0.00    0.00    0.01    0.00    0.00    0.00    6.46    0.46    3.87    0.01    0.00    0.00    0.00    0.00    0.00     0.00    0.00    0.00    0.00
  272    0.00    0.00    0.01    0.00    0.00    0.00    5.97    0.48    4.49    0.01    0.00    0.00    0.00    0.00    0.00     0.00    0.00    0.00    0.00
  273    0.00    0.00    0.01    0.00    0.00    0.00    5.59    0.39    3.89    0.01    0.00    0.00    0.00    0.00    0.00     0.00    0.00    0.00    0.00
  274    0.00    0.00    0.01    0.00    0.00    0.00    5.25    0.33    3.55    0.01    0.00    0.00    0.00    0.00    0.00     0.00    0.00    0.00    0.00
    9   48.12    1.80    0.37    0.02    0.00    0.00    5.25   52.05  123.44    2.18    0.00    0.01    0.00    0.00    3.13     0.01    0.00    0.00    0.00
  275    0.00    0.00    0.01    0.00    0.00    0.00    5.00    0.25    2.83    0.01    0.00    0.00    0.00    0.00    0.00     0.00    0.00    0.00    0.00
  276    4.61    0.31    0.01    0.00    0.00    0.00    8.52    0.76    2.25    0.32    0.00    0.01    0.00    0.00    0.00     0.00    0.00    0.00    0.00
  277   10.19    0.32    0.01    0.00    0.00    0.00   16.32    2.01    2.40    0.34    0.00    0.00    0.00    0.00    0.00     0.00    0.00    0.00    0.00
  278   13.58    1.45    0.02    0.00    0.00    0.00   26.77    1.62    2.00    1.46    0.00    0.01    0.00    0.00    0.01     0.01    0.00    0.00    0.00
  279    0.00    0.00    0.01    0.00    0.00    0.00   24.73    2.04    2.79    0.02    0.00    0.00    0.00    0.00    0.00     0.00    0.00    0.00    0.00
  280    0.04    0.00    0.01    0.00    0.00    0.00   23.17    1.60    2.23    0.01    0.00    0.00    0.00    0.00    0.00     0.00    0.00    0.00    0.00
  281    2.28    0.03    0.01    0.00    0.00    0.00   23.36    2.05    1.71    0.05    0.00    0.00    0.00    0.00    0.00     0.00    0.00    0.00    0.00
  282    2.47    0.04    0.01    0.00    0.00    0.00   23.73    2.05    1.84    0.05    0.00    0.00    0.00    0.00    0.00     0.00    0.00    0.00    0.00
  283   10.88    0.35    0.01    0.00    0.00    0.00   32.12    2.04    1.76    0.37    0.00    0.00    0.00    0.00    0.00     0.00    0.00    0.00    0.00
  284    3.48    0.07    0.02    0.00    0.00    0.00   33.44    2.06    1.94    0.09    0.00    0.00    0.00    0.00    0.01     0.00    0.00    0.00    0.00
  285    3.19    0.04    0.02    0.00    0.00    0.00   34.82    1.75    0.91    0.06    0.00    0.00    0.00    0.00    0.00     0.00    0.00    0.00    0.00
  286    0.00    0.00    0.01    0.00    0.00    0.00   32.88    1.94    2.45    0.01    0.00    0.00    0.00    0.00    0.00     0.00    0.00    0.00    0.00
  287   11.19    0.38    0.02    0.00    0.00    0.00   41.22    2.38    1.61    0.40    0.00    0.01    0.00    0.00    0.01     0.00    0.00    0.00    0.00
  288    8.93    0.28    0.02    0.00    0.00    0.00   47.43    2.35    2.04    0.30    0.00    0.00    0.00    0.00    0.02     0.00    0.00    0.00    0.00
  289    0.04    0.00    0.02    0.00    0.00    0.00   45.55    1.93    2.96    0.02    0.00    0.00    0.00    0.00    0.01     0.00    0.00    0.00    0.00
  290    0.00    0.00    0.02    0.00    0.00    0.00   42.73    2.82    4.69    0.02    0.00    0.00    0.00    0.00    0.01     0.00    0.00    0.00    0.00
  291    0.00    0.00    0.02    0.00    0.00    0.00   40.47    2.26    4.30    0.02    0.00    0.00    0.00    0.00    0.02     0.00    0.00    0.00    0.00
  292    0.04    0.00    0.02    0.00    0.00    0.00   39.55    0.96    2.00    0.02    0.00    0.00    0.00    0.00    0.02     0.00    0.00    0.00    0.00
  293   10.73    0.35    0.02    0.00    0.00    0.00   47.67    2.18    2.74    0.37    0.00    0.00    0.00    0.00    0.01     0.00    0.00    0.00    0.00
  294    0.00    0.00    0.02    0.00    0.00    0.00   46.45    1.22    2.58    0.02    0.00    0.00    0.00    0.00    0.02     0.00    0.00    0.00    0.00
  295    0.00    0.00    0.02    0.00    0.00    0.00   45.38    1.07    2.30    0.02    0.00    0.00    0.00    0.00    0.02     0.00    0.00    0.00    0.00
  296    0.00    0.00    0.02    0.00    0.00    0.00   44.35    1.03    2.32    0.02    0.00    0.00    0.00    0.00    0.02     0.00    0.00    0.00    0.00
  297    0.00    0.00    0.02    0.00    0.00    0.00   43.30    1.04    2.34    0.02    0.00    0.00    0.00    0.00    0.02     0.00    0.00    0.00    0.00
  298    0.30    0.00    0.02    0.00    0.00    0.00   42.65    0.96    1.99    0.02    0.00    0.00    0.00    0.00    0.02     0.00    0.00    0.00    0.00
  299    1.08    0.01    0.02    0.00    0.00    0.00   42.15    1.57    2.13    0.02    0.00    0.00    0.00    0.00    0.02     0.00    0.00    0.00    0.00
  300    0.00    0.00    0.02    0.00    0.00    0.00   40.92    1.22    2.61    0.02    0.00    0.00    0.00    0.00    0.02     0.00    0.00    0.00    0.00
  301    0.00    0.00    0.01    0.00    0.00    0.00   39.99    0.93    2.06    0.01    0.00    0.00    0.00    0.00    0.02     0.00    0.00    0.00    0.00
  302    7.50    0.21    0.02    0.00    0.00    0.00   45.84    1.40    0.90    0.22    0.00    0.00    0.00    0.00    0.02     0.00    0.00    0.00    0.00
  303    5.72    0.15    0.02    0.00    0.00    0.00   49.67    1.68    1.74    0.17    0.00    0.00    0.00    0.00    0.01     0.00    0.00    0.00    0.00
  304    0.04    0.00    0.02    0.00    0.00    0.00   48.45    1.26    2.63    0.02    0.00    0.00    0.00    0.00    0.01     0.00    0.00    0.00    0.00
  305    0.00    0.00    0.02    0.00    0.00    0.00   46.66    1.79    3.50    0.02    0.00    0.00    0.00    0.00    0.01     0.00    0.00    0.00    0.00
   10   96.29    3.99    0.49    0.01    0.00    0.00   46.66   50.23   72.56    4.49    0.01    0.04    0.00    0.00    0.32     0.02    0.00    0.00    0.00
  306    0.00    0.00    0.02    0.00    0.00    0.00   45.31    1.35    2.73    0.02    0.00    0.00    0.00    0.00    0.02     0.00    0.00    0.00    0.00
  307    0.00    0.00    0.01    0.00    0.00    0.00   44.25    1.06    2.48    0.01    0.00    0.00    0.00    0.00    0.02     0.00    0.00    0.00    0.00
  308    0.00    0.00    0.01    0.00    0.00    0.00   43.15    1.11    2.72    0.01    0.00    0.00    0.00    0.00    0.02     0.00    0.00    0.00    0.00
  309    7.97    0.71    0.02    0.00    0.00    0.00   49.01    1.36    1.82    0.73    0.00    0.02    0.00    0.00    0.02     0.00    0.00    0.00    0.00
  310    0.00    0.00    0.02    0.00    0.00    0.00   46.63    2.38    4.39    0.02    0.00    0.00    0.00    0.00    0.01     0.00    0.00    0.00    0.00
  311    0.72    0.00    0.01    0.00    0.00    0.00   45.28    2.07    3.02    0.02    0.00    0.00    0.00    0.00    0.01     0.00    0.00    0.00    0.00
  312    0.74    0.00    0.01    0.00    0.00    0.00   44.27    1.74    2.51    0.02    0.00    0.00    0.00    0.00    0.00     0.00    0.00    0.00    0.00
  313    0.99    0.00    0.01    0.00    0.00    0.00   42.92    2.34    4.32    0.02    0.00    0.00    0.00    0.00    0.01     0.00    0.00    0.00    0.00
  314    4.77    0.12    0.01    0.00    0.00    0.00   45.94    1.61    2.54    0.13    0.00    0.00    0.00    0.00    0.00     0.00    0.00    0.00    0.00
  315    0.00    0.00    0.01    0.00    0.00    0.00   45.18    0.76    1.68    0.01    0.00    0.00    0.00    0.00    0.00     0.00    0.00    0.00    0.00
  316    0.00    0.00    0.01    0.00    0.00    0.00   44.57    0.61    1.39    0.01    0.00    0.00    0.00    0.00    0.00     0.00    0.00    0.00    0.00
  317    1.59    0.00    0.01    0.00    0.00    0.00   45.34    0.81    0.52    0.02    0.00    0.00    0.00    0.00    0.00     0.00    0.00    0.00    0.00
  318    0.00    0.00    0.01    0.00    0.00    0.00   43.86    1.48    2.90    0.01    0.00    0.00    0.00    0.00    0.00     0.00    0.00    0.00    0.00
  319    0.00    0.00    0.01    0.00    0.00    0.00   42.63    1.23    3.07    0.01    0.00    0.00    0.00    0.00    0.00     0.00    0.00    0.00    0.00
  320    0.00    0.00    0.01    0.00    0.00    0.00   41.99    0.64    1.50    0.01    0.00    0.00    0.00    0.00    0.00     0.00    0.00    0.00    0.00
  321    0.00    0.00    0.01    0.00    0.00    0.00   41.40    0.58    1.43    0.01    0.00    0.00    0.00    0.00    0.00     0.00    0.00    0.00    0.00
  322    0.00    0.00    0.01    0.00    0.00    0.00   40.61    0.80    2.12    0.01    0.00    0.00    0.00    0.00    0.00     0.00    0.00    0.00    0.00
  323    3.23    0.05    0.01    0.00    0.00    0.00   42.20    1.58    2.03    0.06    0.00    0.00    0.00    0.00    0.01     0.00    0.00    0.00    0.00
  324    0.00    0.00    0.01    0.00    0.00    0.00   41.17    1.03    2.30    0.01    0.00    0.00    0.00    0.00    0.00     0.00    0.00    0.00    0.00
  325    0.00    0.00    0.01    0.00    0.00    0.00   40.22    0.95    2.47    0.01    0.00    0.00    0.00    0.00    0.00     0.00    0.00    0.00    0.00
  326    0.00    0.00    0.01    0.00    0.00    0.00   39.41    0.81    2.24    0.01    0.00    0.00    0.00    0.00    0.00     0.00    0.00    0.00    0.00
  327    0.00    0.00    0.01    0.00    0.00    0.00   38.81    0.60    1.70    0.01    0.00    0.00    0.00    0.00    0.00     0.00    0.00    0.00    0.00
  328    9.40    0.29    0.01    0.00    0.00    0.00   47.00    0.84    1.20    0.30    0.00    0.00    0.00    0.00    0.00     0.00    0.00    0.00    0.00
  329    0.00    0.00    0.01    0.00    0.00    0.00   46.43    0.57    1.55    0.01    0.00    0.00    0.00    0.00    0.01     0.00    0.00    0.00    0.00
  330    8.03    0.72    0.01    0.00    0.00    0.00   51.33    2.36    3.09    0.73    0.00    0.02    0.00    0.00    0.00     0.01    0.00    0.00    0.00
  331    3.40    0.18    0.01    0.00    0.00    0.00   52.69    1.85    2.17    0.20    0.00    0.00    0.00    0.00    0.00     0.00    0.00    0.00    0.00
  332    0.00    0.00    0.01    0.00    0.00    0.00   51.84    0.86    1.42    0.01    0.00    0.00    0.00    0.00    0.00     0.00    0.00    0.00    0.00
  333    0.00    0.00    0.01    0.00    0.00    0.00   50.63    1.20    2.22    0.01    0.00    0.00    0.00    0.00    0.00     0.00    0.00    0.00    0.00
  334    0.00    0.00    0.01    0.00    0.00    0.00   49.74    0.89    1.69    0.01    0.00    0.00    0.00    0.00    0.00     0.00    0.00    0.00    0.00
  335    0.00    0.00    0.01    0.00    0.00    0.00   49.01    0.73    1.48    0.01    0.00    0.00    0.00    0.00    0.00     0.00    0.00    0.00    0.00
   11   40.83    2.09    0.35    0.00    0.00    0.00   49.01   36.22   66.67    2.44    0.01    0.05    0.00    0.00    0.13     0.01    0.00    0.00    0.00
  336    0.00    0.00    0.01    0.00    0.00    0.00   47.55    1.46    3.39    0.01    0.00    0.00    0.00    0.00    0.00     0.00    0.00    0.00    0.00
  337    0.48    0.00    0.01    0.00    0.00    0.00   46.94    1.09    2.06    0.01    0.00    0.00    0.00    0.00    0.00     0.00    0.00    0.00    0.00
  338    0.00    0.00    0.01    0.00    0.00    0.00   45.83    1.11    2.53    0.01    0.00    0.00    0.00    0.00    0.00     0.00    0.00    0.00    0.00
  339    0.00    0.00    0.01    0.00    0.00    0.00   45.20    0.64    1.47    0.01    0.00    0.00    0.00    0.00    0.00     0.00    0.00    0.00    0.00
  340    0.00    0.00    0.01    0.00    0.00    0.00   44.62    0.58    1.27    0.01    0.00    0.00    0.00    0.00    0.00     0.00    0.00    0.00    0.00
  341    2.37    0.04    0.01    0.00    0.00    0.00   45.85    1.09    1.32    0.05    0.00    0.00    0.00    0.00    0.00     0.00    0.00    0.00    0.00
  342    9.66    0.30    0.01    0.00    0.00    0.00   54.13    1.00    1.24    0.31    0.00    0.00    0.00    0.00    0.01     0.00    0.00    0.00    0.00
  343    5.36    0.14    0.01    0.00    0.00    0.00   57.18    2.11    3.63    0.15    0.00    0.00    0.00    0.00    0.01     0.00    0.00    0.00    0.00
  344    2.79    0.10    0.01    0.00    0.00    0.00   58.74    1.12    1.21    0.12    0.00    0.01    0.00    0.00    0.00     0.00    0.00    0.00    0.00
  345    1.73    0.04    0.01    0.00    0.00    0.00   59.80    0.62    0.75    0.05    0.00    0.00    0.00    0.00    0.00     0.00    0.00    0.00    0.00
  346    0.00    0.00    0.01    0.00    0.00    0.00   58.49    1.31    2.01    0.01    0.00    0.00    0.00    0.00    0.00     0.00    0.00    0.00    0.00
  347    0.69    0.00    0.01    0.00    0.00    0.00   57.45    1.72    2.51    0.01    0.00    0.00    0.00    0.00    0.00     0.00    0.00    0.00    0.00
  348    0.48    0.00    0.01    0.00    0.00    0.00   55.90    2.03    3.62    0.01    0.00    0.00    0.00    0.00    0.00     0.00    0.00    0.00    0.00
  349    0.96    0.00    0.01    0.00    0.00    0.00   55.19    1.66    2.71    0.01    0.00    0.00    0.00    0.00    0.00     0.00    0.00    0.00    0.00
  350    0.00    0.00    0.01    0.00    0.00    0.00   54.40    0.80    1.97    0.01    0.00    0.00    0.00    0.00    0.00     0.00    0.00    0.00    0.00
  351    0.00    0.00    0.01    0.00    0.00    0.00   53.82    0.58    1.38    0.01    0.00    0.00    0.00    0.00    0.00     0.00    0.00    0.00    0.00
  352    0.00    0.00    0.01    0.00    0.00    0.00   53.13    0.69    1.60    0.01    0.00    0.00    0.00    0.00    0.00     0.00    0.00    0.00    0.00
  353    2.20    0.03    0.01    0.00    0.00    0.00   54.66    0.63    1.12    0.04    0.00    0.00    0.00    0.00    0.00     0.00    0.00    0.00    0.00
  354    1.69    0.03    0.01    0.00    0.00    0.00   55.37    0.94    1.22    0.04    0.00    0.00    0.00    0.00    0.00     0.00    0.00    0.00    0.00
  355   12.03    0.00    0.01    0.00    0.00    0.00   54.55    0.87    2.17    0.01    0.00    0.00    0.00    0.00    0.00     0.00    0.00    0.00    0.00
  356    0.00    1.24    0.01    0.00    0.00    0.00   63.30    1.93    2.57    1.25    0.01    0.01    0.00    0.00    0.00     0.02    0.00    0.00    0.00
  357    0.00    0.00    0.01    0.00    0.00    0.00   61.88    1.42    2.02    0.01    0.00    0.00    0.00    0.00    0.00     0.00    0.00    0.00    0.00
  358    0.00    0.00    0.01    0.00    0.00    0.00   60.54    1.34    2.15    0.01    0.00    0.00    0.00    0.00    0.00     0.00    0.00    0.00    0.00
  359    6.09    0.04    0.01    0.00    0.00    0.00   62.14    1.12    1.48    0.05    0.00    0.00    0.00    0.00    0.00     0.00    0.00    0.00    0.00
  360    7.26    0.00    0.01    0.00    0.00    0.00   61.76    0.60    0.82    0.01    0.00    0.00    0.00    0.00    0.00     0.00    0.00    0.00    0.00
  361    5.02    0.78    0.02    0.00    0.00    0.00   74.43    1.81    2.00    0.79    0.00    0.01    0.00    0.00    0.00     0.01    0.00    0.00    0.00
  362    5.06    0.13    0.02    0.00    0.00    0.00   77.54    1.77    2.01    0.15    0.00    0.00    0.00    0.00    0.00     0.00    0.00    0.00    0.00
  363    0.00    0.00    0.02    0.00    0.00    0.00   76.63    0.91    1.20    0.02    0.00    0.00    0.00    0.00    0.00     0.00    0.00    0.00    0.00
  364    0.00    0.00    0.01    0.00    0.00    0.00   74.92    1.71    2.39    0.01    0.00    0.00    0.00    0.00    0.00     0.00    0.00    0.00    0.00
  365    0.00    0.00    0.01    0.00    0.00    0.00   73.65    1.27    1.85    0.01    0.00    0.00    0.00    0.00    0.07     0.00    0.00    0.00    0.00
  366    0.00    0.00    0.01    0.00    0.00    0.00   72.61    1.04    1.67    0.01    0.00    0.00    0.00    0.00    0.02     0.00    0.00    0.00    0.00
   12   63.87    2.87    0.35    0.00    0.00    0.00   72.61   36.97   59.34    3.22    0.02    0.03    0.00    0.00    0.10     0.03    0.00    0.00    0.00

 2004 1096.56   62.20    5.88    4.64    9.15    0.00   72.61 1067.98 1378.89   72.72    0.62    1.68    0.06    1.86  135.82     0.88    0.01    0.13    0.00
1
    SWAT Dec 6 2013    VER 2012/Rev 613                                             

    General Input/Output section (file.cio):                                        
    2/7/2013 12:00:00 AM ARCGIS-SWAT interface AV                                   
                                                                                    
Annual Summary for Watershed in year    3 of simulation

UNIT                                    PERCO    TILE                           WATER     SED     NO3     NO3     NO3     NO3        N       P       P
TIME     PREC    SURQ    LATQ     GWQ    LATE       Q     SW       ET     PET   YIELD   YIELD    SURQ    LATQ    PERC    CROP  ORGANIC SOLUBLE ORGANIC TILENO3
         (mm)    (mm)    (mm)    (mm)    (mm)    (mm)    (mm)    (mm)    (mm)    (mm)    (mm)   ------------------(kg nutrient/ha)-------------------- (kg/ha)
    1    0.00    0.00    0.01    0.00    0.00    0.00   71.74    0.87    1.64    0.01    0.00    0.00    0.00    0.00    0.00     0.00    0.00    0.00    0.00
    2    0.00    0.00    0.01    0.00    0.00    0.00   70.85    0.89    1.55    0.01    0.00    0.00    0.00    0.00    0.00     0.00    0.00    0.00    0.00
    3    0.00    0.00    0.01    0.00    0.00    0.00   69.91    0.94    1.74    0.01    0.00    0.00    0.00    0.00    0.00     0.00    0.00    0.00    0.00
    4    0.00    0.00    0.01    0.00    0.00    0.00   68.68    1.23    2.40    0.01    0.00    0.00    0.00    0.00    0.00     0.00    0.00    0.00    0.00
    5    0.00    0.00    0.01    0.00    0.00    0.00   67.31    1.37    2.86    0.01    0.00    0.00    0.00    0.00    0.00     0.00    0.00    0.00    0.00
    6    0.00    0.00    0.01    0.00    0.00    0.00   66.12    1.19    2.66    0.01    0.00    0.00    0.00    0.00    0.00     0.00    0.00    0.00    0.00
    7    0.00    0.00    0.01    0.00    0.00    0.00   65.32    0.80    1.92    0.01    0.00    0.00    0.00    0.00    0.00     0.00    0.00    0.00    0.00
    8    0.03    0.00    0.01    0.00    0.00    0.00   64.72    0.62    1.51    0.01    0.00    0.00    0.00    0.00    0.00     0.00    0.00    0.00    0.00
    9    0.00    0.00    0.01    0.00    0.00    0.00   63.89    0.83    2.13    0.01    0.00    0.00    0.00    0.00    0.00     0.00    0.00    0.00    0.00
   10    0.00    0.00    0.01    0.00    0.00    0.00   63.24    0.65    1.75    0.01    0.00    0.00    0.00    0.00    0.00     0.00    0.00    0.00    0.00
   11    0.00    0.00    0.01    0.00    0.00    0.00   62.57    0.67    1.85    0.01    0.00    0.00    0.00    0.00    0.00     0.00    0.00    0.00    0.00
   12    0.00    0.00    0.01    0.00    0.00    0.00   61.96    0.61    1.75    0.01    0.00    0.00    0.00    0.00    0.00     0.00    0.00    0.00    0.00
   13    0.00    0.00    0.01    0.00    0.00    0.00   60.98    0.98    2.90    0.01    0.00    0.00    0.00    0.00    0.00     0.00    0.00    0.00    0.00
   14   24.69    1.79    0.02    0.00    0.00    0.00   81.10    2.61    3.05    1.81    0.02    0.02    0.00    0.00    0.00     0.03    0.00    0.00    0.00
   15   11.28    0.64    0.02    0.00    0.00    0.00   90.02    1.62    1.89    0.67    0.00    0.00    0.00    0.00    0.00     0.01    0.00    0.00    0.00
   16    0.00    0.00    0.02    0.00    0.00    0.00   87.54    2.48    2.89    0.02    0.00    0.00    0.00    0.00    0.00     0.00    0.00    0.00    0.00
   17    0.21    0.00    0.02    0.00    0.00    0.00   85.37    2.38    2.97    0.02    0.00    0.00    0.00    0.00    0.00     0.00    0.00    0.00    0.00
   18    0.00    0.00    0.02    0.00    0.00    0.00   84.04    1.33    1.84    0.02    0.00    0.00    0.00    0.00    0.00     0.00    0.00    0.00    0.00
   19    0.00    0.00    0.01    0.00    0.00    0.00   83.04    1.00    1.48    0.01    0.00    0.00    0.00    0.00    0.00     0.00    0.00    0.00    0.00
   20    1.44    0.00    0.01    0.00    0.00    0.00   83.70    0.78    0.90    0.02    0.00    0.00    0.00    0.00    0.00     0.00    0.00    0.00    0.00
   21    2.73    0.04    0.01    0.00    0.00    0.00   85.72    0.66    0.77    0.05    0.00    0.00    0.00    0.00    0.00     0.00    0.00    0.00    0.00
   22    0.00    0.00    0.01    0.00    0.00    0.00   84.99    0.73    0.87    0.01    0.00    0.00    0.00    0.00    0.00     0.00    0.00    0.00    0.00
   23    2.11    0.00    0.01    0.00    0.00    0.00   84.13    0.86    1.87    0.01    0.00    0.00    0.00    0.00    0.00     0.00    0.00    0.00    0.00
   24    0.00    0.03    0.01    0.00    0.00    0.00   84.26    1.95    2.24    0.04    0.00    0.00    0.00    0.00    0.00     0.00    0.00    0.00    0.00
   25    0.00    0.00    0.01    0.00    0.00    0.00   82.43    1.83    2.12    0.01    0.00    0.00    0.00    0.00    0.00     0.00    0.00    0.00    0.00
   26    0.00    0.00    0.01    0.00    0.00    0.00   80.61    1.82    2.50    0.01    0.00    0.00    0.00    0.00    0.00     0.00    0.00    0.00    0.00
   27    0.00    0.00    0.01    0.00    0.00    0.00   78.36    2.25    3.71    0.01    0.00    0.00    0.00    0.00    0.00     0.00    0.00    0.00    0.00
   28    0.00    0.00    0.01    0.00    0.00    0.00   76.87    1.49    2.81    0.01    0.00    0.00    0.00    0.00    0.00     0.00    0.00    0.00    0.00
   29    0.00    0.00    0.01    0.00    0.00    0.00   76.17    0.70    1.45    0.01    0.00    0.00    0.00    0.00    0.00     0.00    0.00    0.00    0.00
   30   13.26    0.84    0.01    0.00    0.00    0.00   88.01    0.51    0.59    0.85    0.01    0.01    0.00    0.00    0.00     0.02    0.00    0.00    0.00
   31    0.00    0.00    0.01    0.00    0.00    0.00   86.35    1.66    1.90    0.01    0.00    0.00    0.00    0.00    0.00     0.00    0.00    0.00    0.00
    1   55.74    3.34    0.39    0.00    0.00    0.00   86.35   38.30   62.48    3.73    0.03    0.04    0.00    0.00    0.00     0.07    0.00    0.01    0.00
   32    0.00    0.00    0.01    0.00    0.00    0.00   84.80    1.55    1.89    0.01    0.00    0.00    0.00    0.00    0.00     0.00    0.00    0.00    0.00
   33    0.00    0.00    0.01    0.00    0.00    0.00   83.39    1.41    1.84    0.01    0.00    0.00    0.00    0.00    0.00     0.00    0.00    0.00    0.00
   34    1.06    0.00    0.01    0.00    0.00    0.00   83.47    0.99    1.15    0.01    0.00    0.00    0.00    0.00    0.00     0.00    0.00    0.00    0.00
   35    8.06    0.40    0.01    0.00    0.00    0.00   89.07    2.00    2.28    0.41    0.01    0.00    0.00    0.00    0.00     0.01    0.00    0.00    0.00
   36    0.00    0.00    0.01    0.00    0.00    0.00   86.07    3.00    3.46    0.01    0.00    0.00    0.00    0.00    0.00     0.00    0.00    0.00    0.00
   37    0.00    0.00    0.01    0.00    0.00    0.00   83.36    2.71    3.56    0.01    0.00    0.00    0.00    0.00    0.00     0.00    0.00    0.00    0.00
   38    0.00    0.00    0.01    0.00    0.00    0.00   81.61    1.74    2.65    0.01    0.00    0.00    0.00    0.00    0.00     0.00    0.00    0.00    0.00
   39    0.00    0.00    0.01    0.00    0.00    0.00   80.07    1.54    2.60    0.01    0.00    0.00    0.00    0.00    0.00     0.00    0.00    0.00    0.00
   40    0.01    0.00    0.01    0.00    0.00    0.00   78.89    1.20    2.21    0.01    0.00    0.00    0.00    0.00    0.00     0.00    0.00    0.00    0.00
   41    0.39    0.00    0.01    0.00    0.00    0.00   77.25    2.02    3.52    0.01    0.00    0.00    0.00    0.00    0.00     0.00    0.00    0.00    0.00
   42    0.00    0.00    0.01    0.00    0.00    0.00   75.08    2.17    4.39    0.01    0.00    0.00    0.00    0.00    0.00     0.00    0.00    0.00    0.00
   43    0.00    0.00    0.01    0.00    0.00    0.00   73.68    1.40    3.21    0.01    0.00    0.00    0.00    0.00    0.00     0.00    0.00    0.00    0.00
   44    0.00    0.00    0.01    0.00    0.00    0.00   72.77    0.90    2.22    0.01    0.00    0.00    0.00    0.00    0.00     0.00    0.00    0.00    0.00
   45    1.13    0.00    0.01    0.00    0.00    0.00   73.11    0.80    1.31    0.01    0.00    0.00    0.00    0.00    0.00     0.00    0.00    0.00    0.00
   46    1.60    0.01    0.01    0.00    0.00    0.00   73.57    1.13    1.39    0.01    0.00    0.00    0.00    0.00    0.00     0.00    0.00    0.00    0.00
   47    0.00    0.00    0.01    0.00    0.00    0.00   71.81    1.75    3.12    0.01    0.00    0.00    0.00    0.00    0.00     0.00    0.00    0.00    0.00
   48    2.38    0.04    0.01    0.00    0.00    0.00   71.26    2.89    4.17    0.04    0.00    0.00    0.00    0.00    0.00     0.00    0.00    0.00    0.00
   49    0.00    0.00    0.01    0.00    0.00    0.00   69.51    1.75    4.03    0.01    0.00    0.00    0.00    0.00    0.00     0.00    0.00    0.00    0.00
   50    0.00    0.00    0.01    0.00    0.00    0.00   68.69    0.82    2.13    0.01    0.00    0.00    0.00    0.00    0.00     0.00    0.00    0.00    0.00
   51    0.00    0.00    0.01    0.00    0.00    0.00   67.73    0.97    2.73    0.01    0.00    0.00    0.00    0.00    0.00     0.00    0.00    0.00    0.00
   52    2.74    0.04    0.01    0.00    0.00    0.00   69.57    0.86    1.08    0.05    0.00    0.00    0.00    0.00    0.00     0.00    0.00    0.00    0.00
   53    1.37    0.00    0.01    0.00    0.00    0.00   69.49    1.43    1.79    0.01    0.00    0.00    0.00    0.00    0.00     0.00    0.00    0.00    0.00
   54    0.00    0.00    0.01    0.00    0.00    0.00   67.52    1.98    4.10    0.01    0.00    0.00    0.00    0.00    0.00     0.00    0.00    0.00    0.00
   55   11.27    0.63    0.01    0.00    0.00    0.00   76.51    1.59    1.79    0.64    0.01    0.01    0.00    0.00    0.00     0.02    0.00    0.00    0.00
   56    7.92    0.39    0.01    0.00    0.00    0.00   82.71    1.29    1.43    0.40    0.00    0.00    0.00    0.00    0.00     0.01    0.00    0.00    0.00
   57    0.00    0.00    0.01    0.00    0.00    0.00   80.85    1.86    2.18    0.01    0.00    0.00    0.00    0.00    0.00     0.00    0.00    0.00    0.00
   58    0.00    0.00    0.01    0.00    0.00    0.00   79.08    1.77    2.27    0.01    0.00    0.00    0.00    0.00    0.00     0.00    0.00    0.00    0.00
   59   18.77    1.33    0.02    0.00    0.00    0.00   95.56    0.81    0.90    1.35    0.05    0.01    0.00    0.00    0.00     0.07    0.00    0.01    0.00
    2   56.71    2.83    0.28    0.00    0.00    0.00   95.56   44.34   69.40    3.11    0.07    0.02    0.00    0.00    0.00     0.12    0.00    0.02    0.00
   60    1.74    0.01    0.02    0.00    0.00    0.00   94.64    2.64    2.93    0.02    0.00    0.00    0.00    0.00    0.00     0.00    0.00    0.00    0.00
   61    0.00    0.00    0.02    0.00    0.00    0.00   91.22    3.42    3.81    0.02    0.00    0.00    0.00    0.00    0.00     0.00    0.00    0.00    0.00
   62    0.00    0.00    0.01    0.00    0.00    0.00   88.19    3.03    3.97    0.01    0.00    0.00    0.00    0.00    0.00     0.00    0.00    0.00    0.00
   63    0.00    0.00    0.01    0.00    0.00    0.00   86.10    2.09    3.21    0.01    0.00    0.00    0.00    0.00    0.00     0.00    0.00    0.00    0.00
   64    0.00    0.00    0.01    0.00    0.00    0.00   83.31    2.79    4.80    0.01    0.00    0.00    0.00    0.00    0.00     0.00    0.00    0.00    0.00
   65    0.31    0.00    0.01    0.00    0.00    0.00   81.44    2.17    3.82    0.01    0.00    0.00    0.00    0.00    0.00     0.00    0.00    0.00    0.00
   66    0.00    0.00    0.01    0.00    0.00    0.00   79.05    2.39    4.96    0.01    0.00    0.00    0.00    0.00    0.00     0.00    0.00    0.00    0.00
   67   13.89    0.91    0.02    0.00    0.00    0.00   87.63    4.33    4.79    0.92    0.04    0.01    0.00    0.00    0.00     0.05    0.00    0.01    0.00
   68   14.56    0.97    0.02    0.00    0.00    0.00   98.12    2.98    3.28    0.99    0.00    0.00    0.00    0.00    0.00     0.05    0.00    0.01    0.00
   69    0.00    0.00    0.02    0.00    0.00    0.00   95.18    2.94    3.28    0.02    0.00    0.00    0.00    0.00    0.00     0.00    0.00    0.00    0.00
   70    0.00    0.00    0.02    0.00    0.00    0.00   92.00    3.18    4.07    0.02    0.00    0.00    0.00    0.00    0.00     0.00    0.00    0.00    0.00
   71    0.60    0.00    0.02    0.00    0.00    0.00   89.25    3.35    4.46    0.02    0.00    0.00    0.00    0.00    0.00     0.00    0.00    0.00    0.00
   72    0.00    0.00    0.01    0.00    0.00    0.00   86.95    2.30    3.79    0.01    0.00    0.00    0.00    0.00    0.00     0.00    0.00    0.00    0.00
   73    9.07    0.47    0.02    0.00    0.00    0.00   93.23    2.28    2.50    0.49    0.02    0.01    0.00    0.00    0.00     0.02    0.00    0.00    0.00
   74    0.00    0.00    0.02    0.00    0.00    0.00   90.79    2.44    3.11    0.02    0.00    0.00    0.00    0.00    0.00     0.00    0.00    0.00    0.00
   75    0.00    0.00    0.01    0.00    0.00    0.00   88.66    2.13    3.03    0.01    0.00    0.00    0.00    0.00    0.00     0.00    0.00    0.00    0.00
   76   29.65    2.33    0.03    0.00    0.00    0.00  114.82    0.90    0.99    2.36    0.08    0.01    0.00    0.00    0.00     0.10    0.00    0.01    0.00
   77    1.61    0.01    0.03    0.00    0.00    0.00  114.98    1.43    1.56    0.04    0.00    0.00    0.00    0.00    0.00     0.00    0.00    0.00    0.00
   78    0.00    0.00    0.02    0.00    0.00    0.00  112.14    2.85    3.10    0.02    0.00    0.00    0.00    0.00    0.00     0.00    0.00    0.00    0.00
   79    0.00    0.00    0.02    0.00    0.00    0.00  108.52    3.62    4.15    0.02    0.00    0.00    0.00    0.00    0.00     0.00    0.00    0.00    0.00
   80    0.00    0.00    0.02    0.00    0.00    0.00  105.41    3.10    4.16    0.02    0.00    0.00    0.00    0.00    0.00     0.00    0.00    0.00    0.00
   81    0.00    0.00    0.02    0.00    0.00    0.00  102.40    3.02    4.64    0.02    0.00    0.00    0.00    0.00    0.00     0.00    0.00    0.00    0.00
   82    7.29    0.29    0.02    0.00    0.00    0.00  107.43    1.93    2.10    0.31    0.00    0.00    0.00    0.00    0.00     0.01    0.00    0.00    0.00
   83    5.19    0.14    0.02    0.00    0.00    0.00  109.68    2.77    3.01    0.16    0.00    0.00    0.00    0.00    0.00     0.00    0.00    0.00    0.00
   84    0.00    0.00    0.02    0.00    0.00    0.00  106.46    3.22    4.02    0.02    0.00    0.00    0.00    0.00    0.00     0.00    0.00    0.00    0.00
   85    0.00    0.00    0.02    0.00    0.00    0.00  104.25    2.22    3.12    0.02    0.00    0.00    0.00    0.00    0.00     0.00    0.00    0.00    0.00
   86    0.00    0.00    0.02    0.00    0.00    0.00  102.74    1.51    2.33    0.02    0.00    0.00    0.00    0.00    0.00     0.00    0.00    0.00    0.00
   87    4.89    0.17    0.02    0.00    0.00    0.00  105.33    2.11    2.28    0.19    0.01    0.00    0.00    0.00    0.00     0.01    0.00    0.00    0.00
   88   10.55    0.46    0.02    0.00    0.00    0.00  110.24    5.11    5.54    0.48    0.01    0.00    0.00    0.00    0.00     0.02    0.00    0.00    0.00
   89    0.00    0.00    0.02    0.00    0.00    0.00  105.43    4.81    6.20    0.02    0.00    0.00    0.00    0.00    0.00     0.00    0.00    0.00    0.00
   90    0.00    0.00    0.02    0.00    0.00    0.00  103.04    2.39    3.72    0.02    0.00    0.00    0.00    0.00    0.00     0.00    0.00    0.00    0.00
    3   99.34    5.76    0.55    0.00    0.00    0.00  103.04   85.44  110.73    6.31    0.15    0.04    0.01    0.00    0.00     0.26    0.00    0.04    0.00
   91    2.91    0.05    0.02    0.00    0.00    0.00  103.71    2.18    2.37    0.06    0.00    0.00    0.00    0.00    0.00     0.00    0.00    0.00    0.00
   92    2.05    0.02    0.02    0.00    0.00    0.00  102.76    2.98    3.37    0.04    0.00    0.00    0.00    0.00    0.00     0.00    0.00    0.00    0.00
   93   10.83    0.73    0.02    0.00    0.00    0.00  105.69    7.11    7.74    0.75    0.04    0.01    0.00    0.00    0.00     0.05    0.00    0.01    0.00
   94    0.00    0.00    0.02    0.00    0.00    0.00  100.78    4.91    7.10    0.02    0.00    0.00    0.00    0.00    0.00     0.00    0.00    0.00    0.00
   95    0.00    0.00    0.02    0.00    0.00    0.00   97.68    3.10    5.62    0.02    0.00    0.00    0.00    0.00    0.00     0.00    0.00    0.00    0.00
   96    0.00    0.00    0.02    0.00    0.00    0.00   94.33    3.35    6.88    0.02    0.00    0.00    0.00    0.00    0.00     0.00    0.00    0.00    0.00
   97    0.00    0.00    0.02    0.00    0.00    0.00   91.65    2.69    6.20    0.02    0.00    0.00    0.00    0.00    0.00     0.00    0.00    0.00    0.00
   98    0.80    0.00    0.01    0.00    0.00    0.00   90.68    1.76    3.27    0.01    0.00    0.00    0.00    0.00    0.00     0.00    0.00    0.00    0.00
   99   13.64    0.85    0.02    0.00    0.00    0.00   97.89    5.52    6.40    0.87    0.04    0.01    0.00    0.00    0.37     0.05    0.00    0.01    0.00
  100    0.00    0.00    0.02    0.00    0.00    0.00   94.41    3.48    4.94    0.02    0.00    0.00    0.00    0.00    0.48     0.00    0.00    0.00    0.00
  101    0.00    0.00    0.02    0.00    0.00    0.00   91.37    3.04    5.08    0.02    0.00    0.00    0.00    0.00    0.94     0.00    0.00    0.00    0.00
[...]
  348    0.00    0.00    0.02    0.00    0.00    0.00   89.20    1.16    1.49    0.02    0.00    0.00    0.00    0.00    0.00     0.00    0.00    0.00    0.00
  349    1.03    0.00    0.02    0.00    0.00    0.00   88.87    0.69    0.60    0.02    0.00    0.00    0.00    0.00    0.00     0.00    0.00    0.00    0.00
  350   28.70    2.34    0.04    0.00    0.00    0.00  114.68    0.98    0.43    2.38    0.05    0.01    0.00    0.00    0.00     0.08    0.00    0.01    0.00
  351    0.00    0.00    0.03    0.00    0.00    0.00  113.45    1.23    1.32    0.03    0.00    0.00    0.00    0.00    0.00     0.00    0.00    0.00    0.00
  352    6.94    0.29    0.03    0.00    0.00    0.00  118.06    1.99    1.53    0.32    0.00    0.00    0.00    0.00    0.00     0.01    0.00    0.00    0.00
  353    0.90    0.00    0.03    0.00    0.00    0.00  117.43    1.53    1.46    0.03    0.00    0.00    0.00    0.00    0.00     0.00    0.00    0.00    0.00
  354    0.00    0.00    0.03    0.00    0.00    0.00  115.34    2.09    2.39    0.03    0.00    0.00    0.00    0.00    0.00     0.00    0.00    0.00    0.00
  355    0.00    0.00    0.02    0.00    0.00    0.00  113.61    1.73    1.98    0.02    0.00    0.00    0.00    0.00    0.00     0.00    0.00    0.00    0.00
  356    0.00    0.00    0.02    0.00    0.00    0.00  112.09    1.52    1.85    0.02    0.00    0.00    0.00    0.00    0.00     0.00    0.00    0.00    0.00
  357    0.00    0.00    0.02    0.00    0.00    0.00  110.79    1.29    1.67    0.02    0.00    0.00    0.00    0.00    0.00     0.00    0.00    0.00    0.00
  358    0.00    0.00    0.02    0.00    0.00    0.00  109.03    1.76    2.43    0.02    0.00    0.00    0.00    0.00    0.00     0.00    0.00    0.00    0.00
  359    1.68    0.01    0.02    0.00    0.00    0.00  109.43    1.27    1.28    0.03    0.00    0.00    0.00    0.00    0.00     0.00    0.00    0.00    0.00
  360    3.61    0.09    0.02    0.00    0.00    0.00  110.58    2.35    2.43    0.11    0.00    0.00    0.00    0.00    0.00     0.00    0.00    0.00    0.00
  361    0.00    0.00    0.02    0.00    0.00    0.00  109.36    1.22    1.58    0.02    0.00    0.00    0.00    0.00    0.00     0.00    0.00    0.00    0.00
  362    0.00    0.00    0.02    0.00    0.00    0.00  108.05    1.31    1.82    0.02    0.00    0.00    0.00    0.00    0.00     0.00    0.00    0.00    0.00
  363   13.52    0.79    0.02    0.00    0.00    0.00  119.00    1.70    1.67    0.81    0.02    0.01    0.00    0.00    0.01     0.03    0.00    0.00    0.00
  364    0.00    0.00    0.02    0.00    0.00    0.00  117.23    1.77    2.00    0.02    0.00    0.00    0.00    0.00    0.02     0.00    0.00    0.00    0.00
  365    0.00    0.00    0.02    0.00    0.00    0.00  115.51    1.72    1.94    0.02    0.00    0.00    0.00    0.00    0.02     0.00    0.00    0.00    0.00
   12   98.84    6.09    0.74    0.00    0.00    0.00  115.51   48.82   51.27    6.82    0.09    0.04    0.01    0.00    0.06     0.17    0.00    0.02    0.00

 2005  849.00   48.37    4.14    0.00    0.00    0.00  115.51  753.40 1461.70   52.51    0.66    2.27    0.08    0.00  166.40     1.10    0.01    0.16    0.00
1
    SWAT Dec 6 2013    VER 2012/Rev 613                                             

    General Input/Output section (file.cio):                                        
    2/7/2013 12:00:00 AM ARCGIS-SWAT interface AV                                   
                                                                                    
    FINAL VALUES

1
    SWAT Dec 6 2013    VER 2012/Rev 613                                             

    General Input/Output section (file.cio):                                        
    2/7/2013 12:00:00 AM ARCGIS-SWAT interface AV                                   
                                                                                    
                                            Average Plant Values (kg/ha)

  HRU       1 SUB   1 BERM  Yld = 12862.7 BIOM =  18406.7
  HRU       2 SUB   1 BERM  Yld = 12796.9 BIOM =  18310.8
  HRU       3 SUB   1 BERM  Yld = 13035.6 BIOM =  18657.5
  HRU       4 SUB   1 BERM  Yld = 13025.0 BIOM =  18642.1
  HRU       5 SUB   1 BERM  Yld = 12909.9 BIOM =  18479.7
  HRU       6 SUB   1 BERM  Yld = 12874.4 BIOM =  18428.3
  HRU       7 SUB   1 BERM  Yld = 11600.6 BIOM =  16564.8
  HRU       8 SUB   1 BERM  Yld = 11709.0 BIOM =  16722.4
  HRU       9 SUB   1 BERM  Yld = 11678.5 BIOM =  16678.0
  HRU      10 SUB   1 BERM  Yld = 11822.5 BIOM =  16887.8
  HRU      11 SUB   1 BERM  Yld = 11814.3 BIOM =  16876.6
  HRU      12 SUB   1 BERM  Yld = 11557.0 BIOM =  16513.8
  HRU      13 SUB   1 BERM  Yld = 11530.7 BIOM =  16475.7
  HRU      14 SUB   2 BERM  Yld = 12740.7 BIOM =  18218.3
  HRU      15 SUB   2 BERM  Yld = 12786.4 BIOM =  18283.9
  HRU      16 SUB   2 BERM  Yld = 11638.3 BIOM =  16610.4
  HRU      17 SUB   2 BERM  Yld = 11629.1 BIOM =  16597.0
  HRU      18 SUB   2 BERM  Yld = 11355.0 BIOM =  16211.8
  HRU      19 SUB   2 BERM  Yld = 11328.0 BIOM =  16172.6
  HRU      20 SUB   2 FRSD  Yld =  3180.2 BIOM =  14384.3
  HRU      21 SUB   2 FRSD  Yld =  3055.3 BIOM =  13901.9
  HRU      22 SUB   3 BERM  Yld = 14619.9 BIOM =  20882.6
  HRU      23 SUB   3 BERM  Yld = 14640.7 BIOM =  20913.1
  HRU      24 SUB   3 BERM  Yld = 12802.3 BIOM =  18255.5
  HRU      25 SUB   3 BERM  Yld = 12854.2 BIOM =  18329.4
  HRU      26 SUB   3 FRSD  Yld =  3423.2 BIOM =  16138.4
  HRU      27 SUB   3 FRSD  Yld =  3482.4 BIOM =  16402.0
  HRU      28 SUB   3 FRSD  Yld =  3492.6 BIOM =  16448.8
  HRU      29 SUB   3 FRSE  Yld =  4061.3 BIOM =  19483.5
  HRU      30 SUB   3 FRSE  Yld =  4069.8 BIOM =  19501.4
  HRU      31 SUB   4 BERM  Yld = 14275.4 BIOM =  20357.1
  HRU      32 SUB   4 BERM  Yld = 14322.4 BIOM =  20423.7
  HRU      33 SUB   4 FRSD  Yld =  3380.0 BIOM =  15992.3
  HRU      34 SUB   4 FRSD  Yld =  3430.0 BIOM =  16220.7
  HRU      35 SUB   4 FRSD  Yld =  3438.7 BIOM =  16262.4
  HRU      36 SUB   4 FRSE  Yld =  4038.9 BIOM =  19406.2
  HRU      37 SUB   4 FRSE  Yld =  4039.9 BIOM =  19397.0
  HRU      38 SUB   4 HAY   Yld = 14547.3 BIOM =  23286.9
  HRU      39 SUB   4 HAY   Yld = 14587.2 BIOM =  23347.0

    HRU STATISTICS

                AVE ANNUAL VALUES

   HRU  SUB  SOIL       AREAkm2    CN     AWCmm   USLE_LS  IRRmm  AUTONkh AUTOPkh  MIXEF PRECmm SURQGENmm   GWQmm    ETmm   SEDth  NO3kgh  ORGNkgh BIOMth   YLDth  SURQmm
      1   1   MAYODAN    .197E+01   63.29  165.80    0.56    0.00  155.92    0.00    0.20  916.47   54.80    4.85  816.90    0.23    2.33    0.50   18.41   12.86   54.80
      2   1   MAYODAN    .154E+01   63.29  165.80    1.15    0.00  155.81    0.00    0.20  916.47   54.67   13.71  809.31    0.47    2.47    0.91   18.31   12.80   54.67
      3   1   HERNDON    .300E+01   63.29  288.19    0.58    0.00  162.11    0.00    0.20  916.47   53.44    0.45  824.30    0.47    2.19    0.58   18.66   13.04   53.44
      4   1   HERNDON    .419E+01   63.29  288.19    1.25    0.00  162.10    0.00    0.20  916.47   53.44    1.33  823.44    1.09    2.20    1.09   18.64   13.02   53.44
      5   1   HIWASSEE   .325E+01   63.29  307.23    0.58    0.00  162.85    0.00    0.20  916.47   53.26    1.52  822.98    0.37    2.22    0.73   18.48   12.91   53.27
      6   1   HIWASSEE   .499E+01   63.29  307.23    1.28    0.00  162.78    0.00    0.20  916.47   53.28    4.56  820.12    0.87    2.29    1.45   18.43   12.87   53.28
      7   1   MAYODAN    .452E+00   73.82  165.80    1.15    0.00  151.03    0.00    0.20  916.47  164.79   10.76  712.39    1.15    5.21    2.47   16.56   11.60  164.79
      8   1   MAYODAN    .396E+00   73.82  165.80    0.18    0.00  151.39    0.00    0.20  916.47  164.92    0.98  720.73    0.20    5.02    0.94   16.72   11.71  164.92
      9   1   MAYODAN    .869E+00   73.82  165.80    0.56    0.00  151.30    0.00    0.20  916.47  164.88    3.80  718.33    0.60    4.99    1.52   16.68   11.68  164.88
     10   1   HERNDON    .163E+01   73.82  288.19    1.25    0.00  157.53    0.00    0.20  916.47  162.75    1.05  721.88    2.90    5.37    2.61   16.89   11.82  162.75
     11   1   HERNDON    .126E+01   73.82  288.19    0.58    0.00  154.33    0.00    0.20  916.47  162.76    0.35  722.48    1.29    5.38    1.65   16.88   11.81  162.76
     12   1   HIWASSEE   .877E+00   73.82  307.23    0.56    0.00  154.18    0.00    0.20  916.47  162.51    1.17  723.56    0.93    5.26    2.01   16.51   11.56  162.51
     13   1   HIWASSEE   .975E+00   73.82  307.23    1.20    0.00  153.93    0.00    0.20  916.47  162.53    3.46  721.39    2.03    5.31    3.29   16.48   11.53  162.53
     14   2   HIWASSEE   .101E+02   63.29  307.23    1.25    0.00  163.32    0.00    0.20  927.67   54.42    4.57  825.19    1.03    2.31    1.66   18.22   12.74   54.42
     15   2   HIWASSEE   .690E+01   63.29  307.23    0.58    0.00  163.32    0.00    0.20  927.67   54.40    1.54  828.02    0.45    2.24    0.87   18.28   12.79   54.40
     16   2   HERNDON    .407E+00   73.82  288.19    0.58    0.00  157.51    0.00    0.20  927.67  166.21    0.36  727.02    1.29    5.55    1.96   16.61   11.64  166.21
     17   2   HERNDON    .564E+00   73.82  288.19    1.28    0.00  157.54    0.00    0.20  927.67  166.21    1.08  726.36    2.98    5.52    2.94   16.60   11.63  166.21
     18   2   HIWASSEE   .283E+01   73.82  307.23    0.58    0.00  154.10    0.00    0.20  927.67  165.98    1.22  727.21    1.26    5.28    2.33   16.21   11.36  165.98
     19   2   HIWASSEE   .341E+01   73.82  307.23    1.25    0.00  153.85    0.00    0.20  927.67  165.99    3.62  724.95    2.80    5.34    3.90   16.17   11.33  165.99
     20   2   HIWASSEE   .328E+01   66.00  307.23    1.33    0.00    0.00    0.00    0.20  927.67    0.06    4.78  899.18    0.00    0.03    0.00   16.23    0.00    0.06
     21   2   HIWASSEE   .270E+01   66.00  307.23    1.96    0.00    0.00    0.00    0.20  927.67    0.06   21.51  882.72    0.00    0.13    0.00   15.59    0.00    0.06
     22   3   HIWASSEE   .231E+01   63.29  307.23    1.15    0.00  189.18    0.00    0.20 1005.37   56.37    6.44 1003.92    0.64    2.18    1.17   20.88   14.62   56.38
     23   3   HIWASSEE   .286E+01   63.29  307.23    0.58    0.00  189.30    0.00    0.20 1005.37   56.43    3.96 1006.20    0.32    2.11    0.68   20.91   14.64   56.43
     24   3   HIWASSEE   .707E+00   73.82  307.23    1.18    0.00  182.61    0.00    0.20 1005.37  168.29    4.11  878.53    1.69    4.96    3.03   18.26   12.80  168.29
     25   3   HIWASSEE   .101E+01   73.82  307.23    0.58    0.00  182.53    0.00    0.20 1005.37  168.25    1.49  881.54    0.87    4.80    1.94   18.33   12.85  168.26
     26   3   HIWASSEE   .123E+01   66.00  307.23    2.05    0.00    0.00    0.00    0.20 1005.37    2.63   33.63 1025.62    0.00    0.23    0.00   17.47    0.00    2.63
     27   3   HIWASSEE   .161E+01   66.00  307.23    1.31    0.00    0.00    0.00    0.20 1005.37    3.11   18.89 1038.63    0.00    0.07    0.00   17.77    0.00    3.11
     28   3   HIWASSEE   .123E+01   66.00  307.23    0.58    0.00    0.00    0.00    0.20 1005.37    3.26   16.07 1041.04    0.00    0.04    0.00   17.82    0.00    3.26
     29   3   HIWASSEE   .161E+01   55.00  307.23    0.56    0.00    0.00    0.00    0.20 1005.37    0.00    5.71 1036.59    0.00    0.01    0.00   20.65    0.00    0.00
     30   3   HIWASSEE   .128E+01   55.00  307.23    1.15    0.00    0.00    0.00    0.20 1005.37    0.00    8.04 1034.45    0.00    0.04    0.00   20.69    0.00    0.00
     31   4   HIWASSEE   .294E+01   63.29  307.23    1.25    0.00  189.39    0.00    0.20 1001.87   56.03    6.67 1003.00    0.74    2.45    1.34   20.36   14.28   56.03
     32   4   HIWASSEE   .241E+01   63.29  307.23    0.58    0.00  189.53    0.00    0.20 1001.87   56.10    3.96 1005.49    0.33    2.38    0.70   20.42   14.32   56.10
     33   4   HIWASSEE   .282E+01   66.00  307.23    1.89    0.00    0.00    0.00    0.20 1001.87    2.64   32.65 1025.54    0.00    0.22    0.00   17.24    0.00    2.64
     34   4   HIWASSEE   .427E+01   66.00  307.23    1.33    0.00    0.00    0.00    0.20 1001.87    3.11   18.94 1037.75    0.00    0.07    0.00   17.50    0.00    3.11
     35   4   HIWASSEE   .210E+01   66.00  307.23    0.60    0.00    0.00    0.00    0.20 1001.87    3.26   16.11 1040.19    0.00    0.04    0.00   17.54    0.00    3.26
     36   4   HIWASSEE   .234E+01   55.00  307.23    0.60    0.00    0.00    0.00    0.20 1001.87    0.00    5.79 1035.43    0.00    0.01    0.00   20.54    0.00    0.00
     37   4   HIWASSEE   .439E+01   55.00  307.23    1.28    0.00    0.00    0.00    0.20 1001.87    0.00    8.31 1033.17    0.00    0.04    0.00   20.54    0.00    0.00
     38   4   HIWASSEE   .178E+01   59.00  307.23    1.20    0.00  304.53    0.00    0.20 1001.87    0.42    8.14 1058.09    0.00    0.28    0.00   14.33   13.38    0.42
     39   4   HIWASSEE   .172E+01   59.00  307.23    0.58    0.00  305.19    0.00    0.20 1001.87    0.55    5.35 1060.68    0.00    0.11    0.00   14.37   13.41    0.55



                AVE MONTHLY BASIN VALUES
                   SNOW                      WATER               SED
  MON     RAIN     FALL   SURF Q    LAT Q    YIELD       ET    YIELD      PET
          (MM)     (MM)     (MM)     (MM)     (MM)     (MM)   (T/HA)     (MM)
    1    61.10    17.33     3.31     0.48     3.84    38.84     0.05    58.84
    2    61.13     1.72     3.75     0.38     4.47    45.29     0.11    64.29
    3    88.68     0.00     5.17     0.54     6.40    79.21     0.17   110.26
    4    44.76     0.00     2.37     0.39     3.39    86.90     0.14   151.79
    5    62.20     0.00     3.29     0.28     3.92    95.38     0.03   168.92
    6   156.40     0.00    11.17     0.47    11.79   140.41     0.01   166.44
    7   136.26     0.00     6.44     0.47     6.98   143.20     0.01   184.32
    8    92.28     0.00     5.10     0.50     5.62   116.51     0.01   160.46
    9    41.60     0.00     1.94     0.25     2.21    39.16     0.00   141.02
   10    75.13     0.00     3.70     0.38     4.08    46.93     0.01    85.26
   11    70.78     0.00     4.51     0.32     4.83    35.15     0.05    72.23
   12    81.36    15.24     4.48     0.54     5.02    42.89     0.06    55.31

     AVE ANNUAL BASIN STRESS DAYS
               WATER STRESS DAYS =    44.84
               TEMPERATURE STRESS DAYS =    19.24
               NITROGEN STRESS DAYS =    16.38
               PHOSPHORUS STRESS DAYS =     0.00
               AERATION STRESS DAYS =     0.00
1
    SWAT Dec 6 2013    VER 2012/Rev 613                                             

    General Input/Output section (file.cio):                                        
    2/7/2013 12:00:00 AM ARCGIS-SWAT interface AV                                   
                                                                                    
         AVE ANNUAL BASIN VALUES

              PRECIP =    972.8 MM
              SNOW FALL =   34.31 MM
              SNOW MELT =    34.19 MM
              SUBLIMATION =     0.12 MM
              SURFACE RUNOFF Q =    55.29 MM
              LATERAL SOIL Q =    5.01 MM
              TILE Q =     0.00 MM
              GROUNDWATER (SHAL AQ) Q =     2.32 MM
              GROUNDWATER (DEEP AQ) Q =     0.00 MM
              REVAP (SHAL AQ => SOIL/PLANTS) =    0.43 MM
              DEEP AQ RECHARGE =     2.25 MM
              TOTAL AQ RECHARGE =    4.57 MM
              TOTAL WATER YLD =    62.62 MM
              PERCOLATION OUT OF SOIL =    4.57 MM
              ET =    910.7 MM
              PET =   1420.3MM
              TRANSMISSION LOSSES =     0.00 MM
              SEPTIC INFLOW =       0.00 MM
              TOTAL SEDIMENT LOADING =     0.641 T/HA
              TILE FROM IMPOUNDED WATER =     0.000 (MM)
              EVAPORATION FROM IMPOUNDED WATER =     0.000 (MM)
              SEEPAGE INTO SOIL FROM IMPOUNDED WATER =    0.000 (MM)
              OVERFLOW FROM IMPOUNDED WATER =    0.000 (MM)
1
    SWAT Dec 6 2013    VER 2012/Rev 613                                             

    General Input/Output section (file.cio):                                        
    2/7/2013 12:00:00 AM ARCGIS-SWAT interface AV                                   
                                                                                    
              AVE ANNUAL BASIN VALUES


              NUTRIENTS
                   ORGANIC N =     0.994 (KG/HA)
                   ORGANIC P =     0.142 (KG/HA)
                   NO3 YIELD (SQ) =     1.978 (KG/HA)
                   NO3 YIELD (LAT) =    0.070 (KG/HA)
                   NO3 YIELD (TILE) =    0.000 (KG/HA)
                   SOLP YIELD (TILE) =    0.000(KG/HA)
                   SOLP YIELD (SURF INLET RISER) =    0.000 (KG/HA)
                   SOL P YIELD =    0.014 (KG/HA)
                   NO3 LEACHED =     0.931 (KG/HA)
                   P LEACHED =     0.005 (KG/HA)
                   N UPTAKE =   151.113 (KG/HA)
                   P UPTAKE =   35.414 (KG/HA)
                   NO3 YIELD (GWQ) =     0.155 (KG/HA)
                   ACTIVE TO SOLUTION P FLOW =       -25.633 (KG/HA)
                   ACTIVE TO STABLE P FLOW =       -21.878 (KG/HA)
                   N FERTILIZER APPLIED =   122.280 (KG/HA)
                   P FERTILIZER APPLIED =     0.000 (KG/HA)
                   N FIXATION =     0.000 (KG/HA)
                   DENITRIFICATION =     0.000 (KG/HA)
                   HUMUS MIN ON ACTIVE ORG N =     2.333 (KG/HA)
                   ACTIVE TO STABLE ORG N =     0.372 (KG/HA)
                   HUMUS MIN ON ACTIVE ORG P =    0.408 (KG/HA)
                   MIN FROM FRESH ORG N =   29.057 (KG/HA)
                   MIN FROM FRESH ORG P =   10.065 (KG/HA)
                   NO3 IN RAINFALL =     8.281 (KG/HA)
                   INITIAL NO3 IN SOIL =      50.149 (KG/HA)
                   FINAL NO3 IN SOIL =        18.184 (KG/HA)
                   INITIAL ORG N IN SOIL =    3579.127 (KG/HA)
                   FINAL ORG N IN SOIL =      3614.055 (KG/HA)
                   INITIAL MIN P IN SOIL =    3816.070 (KG/HA)
                   FINAL MIN P IN SOIL =      3734.223 (KG/HA)
                   INITIAL ORG P IN SOIL =     438.443 (KG/HA)
                   FINAL ORG P IN SOIL =     449.924 (KG/HA)
                   NO3 IN FERT =   122.280 (KG/HA)
                   AMMONIA IN FERT =     0.000 (KG/HA)
                   ORG N IN FERT =     0.000 (KG/HA)
                   MINERAL P IN FERT =     0.000 (KG/HA)
                   ORG P IN FERT =     0.000 (KG/HA)
                   N REMOVED IN YIELD =   114.652 (KG/HA)
                   P REMOVED IN YIELD =    24.401 (KG/HA)
                   AMMONIA VOLATILIZATION =     0.000 (KG/HA)
                   AMMONIA NITRIFICATION =      0.000 (KG/HA)
                   NO3 EVAP-LAYER 2 TO 1 =   22.364

                   DIE-GRO P Q =       0.0 (No/HA)
                   DIE-GRO LP Q =       0.0 (No/HA)
                   DIE-GRO P SED =      0.0 (No/HA)
                   DIE-GRO LP SED =      0.0 (No/HA)
                   BACT P RUNOFF =      0.0 (No/HA)
                   BACT LP RUNOFF =      0.0 (No/HA)
                   BACT P SEDIMENT =      0.0 (No/HA)
                   BACT LP SEDIMENT =      0.0 (No/HA)
                   BACT P INCORP =      0.0 (No/HA)
                   BACT LP INCORP =      0.0 (No/HA)

                   NITRATE SEPTIC =         0.00 (kg/ha)
                   AMMONIA SEPTIC =         0.00 (kg/ha)
                   ORG N SEPTIC =         0.00 (kg/ha)
                   FRESH ORGN SEPTIC =         0.00 (kg/ha)
                   ORG P SEPTIC =         0.00 (kg/ha)
                   FRESH ORGP SEPTIC =         0.00 (kg/ha)
                   SOL P SEPTIC =         0.00 (kg/ha)
                   BOD SEPTIC =         0.00 (kg/ha)
