1
    SWAT Nov 14 2012    VER 2012/Rev 582                                                                 0/ 0/   0      0: 0: 0

    General Input/Output section (file.cio):                                        
    2/7/2013 12:00:00 AM ARCGIS-SWAT interface AV                                   
                                                                                    


       RCH      GIS   MON     AREAkm2  FLOW_INcms FLOW_OUTcms
REACH    1        0     1  0.2495E+02  0.1021E-02  0.9729E-03
REACH    2        0     1  0.5464E+02  0.5071E-02  0.3852E-02
REACH    3        0     1  0.1361E+02  0.8908E-01  0.8874E-01
REACH    4        0     1  0.9257E+02  0.2832E+00  0.2810E+00
REACH    1        0     2  0.2495E+02  0.9668E-03  0.9216E-03
REACH    2        0     2  0.5464E+02  0.4869E-02  0.3701E-02
REACH    3        0     2  0.1361E+02  0.9167E-01  0.9134E-01
REACH    4        0     2  0.9257E+02  0.2907E+00  0.2886E+00
REACH    1        0     3  0.2495E+02  0.9281E-03  0.8774E-03
REACH    2        0     3  0.5464E+02  0.4682E-02  0.3451E-02
REACH    3        0     3  0.1361E+02  0.9394E-01  0.9357E-01
REACH    4        0     3  0.9257E+02  0.2970E+00  0.2947E+00
REACH    1        0     4  0.2495E+02  0.8979E-03  0.8280E-03
REACH    2        0     4  0.5464E+02  0.4495E-02  0.2922E-02
REACH    3        0     4  0.1361E+02  0.9590E-01  0.9539E-01
REACH    4        0     4  0.9257E+02  0.3021E+00  0.2989E+00
REACH    1        0     5  0.2495E+02  0.8723E-03  0.7890E-03
REACH    2        0     5  0.5464E+02  0.4325E-02  0.2391E-02
REACH    3        0     5  0.1361E+02  0.9756E-01  0.9696E-01
REACH    4        0     5  0.9257E+02  0.3062E+00  0.3025E+00
REACH    1        0     6  0.2495E+02  0.8496E-03  0.7720E-03
REACH    2        0     6  0.5464E+02  0.4182E-02  0.2206E-02
REACH    3        0     6  0.1361E+02  0.9896E-01  0.9840E-01
REACH    4        0     6  0.9257E+02  0.3101E+00  0.3066E+00
REACH    1        0     7  0.2495E+02  0.8286E-03  0.7726E-03
REACH    2        0     7  0.5464E+02  0.4063E-02  0.2424E-02
REACH    3        0     7  0.1361E+02  0.1001E+00  0.9969E-01
REACH    4        0     7  0.9257E+02  0.3137E+00  0.3112E+00
REACH    1        0     8  0.2495E+02  0.8088E-03  0.7712E-03
REACH    2        0     8  0.5464E+02  0.3947E-02  0.2655E-02
REACH    3        0     8  0.1361E+02  0.1010E+00  0.1007E+00
REACH    4        0     8  0.9257E+02  0.3165E+00  0.3144E+00
REACH    1        0     9  0.2495E+02  0.7898E-03  0.7277E-03
REACH    2        0     9  0.5464E+02  0.3793E-02  0.2399E-02
REACH    3        0     9  0.1361E+02  0.1017E+00  0.1012E+00
REACH    4        0     9  0.9257E+02  0.3180E+00  0.3152E+00
REACH    1        0    10  0.2495E+02  0.7715E-03  0.7205E-03
REACH    2        0    10  0.5464E+02  0.3680E-02  0.2307E-02
REACH    3        0    10  0.1361E+02  0.1022E+00  0.1018E+00
REACH    4        0    10  0.9257E+02  0.3193E+00  0.3170E+00
REACH    1        0    11  0.2495E+02  0.7537E-03  0.6997E-03
REACH    2        0    11  0.5464E+02  0.3558E-02  0.2233E-02
REACH    3        0    11  0.1361E+02  0.1025E+00  0.1021E+00
REACH    4        0    11  0.9257E+02  0.3199E+00  0.3174E+00
REACH    1        0    12  0.2495E+02  0.7365E-03  0.6856E-03
REACH    2        0    12  0.5464E+02  0.3447E-02  0.2148E-02
REACH    3        0    12  0.1361E+02  0.1026E+00  0.1022E+00
REACH    4        0    12  0.9257E+02  0.3200E+00  0.3177E+00
REACH    1        0    13  0.2495E+02  0.7197E-03  0.6352E-03
REACH    2        0    13  0.5464E+02  0.3304E-02  0.1597E-02
REACH    3        0    13  0.1361E+02  0.1025E+00  0.1019E+00
REACH    4        0    13  0.9257E+02  0.3189E+00  0.3151E+00
REACH    1        0    14  0.2495E+02  0.7227E+00  0.7226E+00
REACH    2        0    14  0.5464E+02  0.1529E+01  0.1528E+01
REACH    3        0    14  0.1361E+02  0.4643E+00  0.4636E+00
REACH    4        0    14  0.9257E+02  0.2681E+01  0.2677E+01
REACH    1        0    15  0.2495E+02  0.2918E+00  0.2918E+00
REACH    2        0    15  0.5464E+02  0.5634E+00  0.5620E+00
REACH    3        0    15  0.1361E+02  0.1955E+00  0.1951E+00
REACH    4        0    15  0.9257E+02  0.1043E+01  0.1041E+01
REACH    1        0    16  0.2495E+02  0.5691E-02  0.5607E-02
REACH    2        0    16  0.5464E+02  0.1174E-01  0.8523E-02
REACH    3        0    16  0.1361E+02  0.1093E+00  0.1087E+00
REACH    4        0    16  0.9257E+02  0.3483E+00  0.3445E+00
REACH    1        0    17  0.2495E+02  0.3275E-02  0.3186E-02
REACH    2        0    17  0.5464E+02  0.8793E-02  0.6125E-02
REACH    3        0    17  0.1361E+02  0.1113E+00  0.1107E+00
REACH    4        0    17  0.9257E+02  0.3528E+00  0.3491E+00
REACH    1        0    18  0.2495E+02  0.2229E-02  0.2175E-02
REACH    2        0    18  0.5464E+02  0.7551E-02  0.5859E-02
REACH    3        0    18  0.1361E+02  0.1133E+00  0.1129E+00
REACH    4        0    18  0.9257E+02  0.3595E+00  0.3570E+00
REACH    1        0    19  0.2495E+02  0.1690E-02  0.1647E-02
REACH    2        0    19  0.5464E+02  0.6805E-02  0.5582E-02
REACH    3        0    19  0.1361E+02  0.1151E+00  0.1148E+00
REACH    4        0    19  0.9257E+02  0.3653E+00  0.3633E+00
REACH    1        0    20  0.2495E+02  0.3164E-02  0.3137E-02
REACH    2        0    20  0.5464E+02  0.9757E-02  0.9801E-02
REACH    3        0    20  0.1361E+02  0.1168E+00  0.1166E+00
REACH    4        0    20  0.9257E+02  0.3750E+00  0.3739E+00
REACH    1        0    21  0.2495E+02  0.1767E-01  0.1765E-01
REACH    2        0    21  0.5464E+02  0.4032E-01  0.4102E-01
REACH    3        0    21  0.1361E+02  0.1213E+00  0.1212E+00
REACH    4        0    21  0.9257E+02  0.4170E+00  0.4160E+00
REACH    1        0    22  0.2495E+02  0.1502E-02  0.1477E-02
REACH    2        0    22  0.5464E+02  0.6230E-02  0.3320E-02
REACH    3        0    22  0.1361E+02  0.1190E+00  0.1188E+00
REACH    4        0    22  0.9257E+02  0.3765E+00  0.3753E+00
REACH    1        0    23  0.2495E+02  0.1264E-02  0.1210E-02
REACH    2        0    23  0.5464E+02  0.5756E-02  0.4684E-02
REACH    3        0    23  0.1361E+02  0.1198E+00  0.1194E+00
REACH    4        0    23  0.9257E+02  0.3804E+00  0.3779E+00
REACH    1        0    24  0.2495E+02  0.2671E-01  0.2664E-01
REACH    2        0    24  0.5464E+02  0.3903E-01  0.3933E-01
REACH    3        0    24  0.1361E+02  0.1204E+00  0.1200E+00
REACH    4        0    24  0.9257E+02  0.4172E+00  0.4143E+00
REACH    1        0    25  0.2495E+02  0.1182E-02  0.1120E-02
REACH    2        0    25  0.5464E+02  0.5397E-02  0.2054E-02
REACH    3        0    25  0.1361E+02  0.1206E+00  0.1201E+00
REACH    4        0    25  0.9257E+02  0.3809E+00  0.3781E+00
REACH    1        0    26  0.2495E+02  0.1128E-02  0.1056E-02
REACH    2        0    26  0.5464E+02  0.5158E-02  0.3261E-02
REACH    3        0    26  0.1361E+02  0.1207E+00  0.1202E+00
REACH    4        0    26  0.9257E+02  0.3826E+00  0.3793E+00
REACH    1        0    27  0.2495E+02  0.1037E-02  0.9288E-03
REACH    2        0    27  0.5464E+02  0.4874E-02  0.2482E-02
REACH    3        0    27  0.1361E+02  0.1206E+00  0.1198E+00
REACH    4        0    27  0.9257E+02  0.3816E+00  0.3767E+00
REACH    1        0    28  0.2495E+02  0.9808E-03  0.8990E-03
REACH    2        0    28  0.5464E+02  0.4693E-02  0.2427E-02
REACH    3        0    28  0.1361E+02  0.1204E+00  0.1198E+00
REACH    4        0    28  0.9257E+02  0.3811E+00  0.3774E+00
REACH    1        0    29  0.2495E+02  0.9418E-03  0.8996E-03
REACH    2        0    29  0.5464E+02  0.4550E-02  0.3070E-02
REACH    3        0    29  0.1361E+02  0.1199E+00  0.1196E+00
REACH    4        0    29  0.9257E+02  0.3809E+00  0.3790E+00
REACH    1        0    30  0.2495E+02  0.3401E+00  0.3401E+00
REACH    2        0    30  0.5464E+02  0.7396E+00  0.7412E+00
REACH    3        0    30  0.1361E+02  0.2171E+00  0.2169E+00
REACH    4        0    30  0.9257E+02  0.1268E+01  0.1267E+01
REACH    1        0    31  0.2495E+02  0.3095E-02  0.3040E-02
REACH    2        0    31  0.5464E+02  0.8079E-02  0.4728E-02
REACH    3        0    31  0.1361E+02  0.1200E+00  0.1196E+00
REACH    4        0    31  0.9257E+02  0.3833E+00  0.3808E+00
REACH    1        0    32  0.2495E+02  0.1850E-02  0.1795E-02
REACH    2        0    32  0.5464E+02  0.6223E-02  0.4837E-02
REACH    3        0    32  0.1361E+02  0.1194E+00  0.1190E+00
REACH    4        0    32  0.9257E+02  0.3823E+00  0.3798E+00
REACH    1        0    33  0.2495E+02  0.1416E-02  0.1362E-02
REACH    2        0    33  0.5464E+02  0.5614E-02  0.4205E-02
REACH    3        0    33  0.1361E+02  0.1189E+00  0.1185E+00
REACH    4        0    33  0.9257E+02  0.3804E+00  0.3780E+00
REACH    1        0    34  0.2495E+02  0.1188E-02  0.1155E-02
REACH    2        0    34  0.5464E+02  0.5241E-02  0.4211E-02
REACH    3        0    34  0.1361E+02  0.1184E+00  0.1181E+00
REACH    4        0    34  0.9257E+02  0.3790E+00  0.3775E+00
REACH    1        0    35  0.2495E+02  0.1780E+00  0.1779E+00
REACH    2        0    35  0.5464E+02  0.3581E+00  0.3585E+00
REACH    3        0    35  0.1361E+02  0.1612E+00  0.1607E+00
REACH    4        0    35  0.9257E+02  0.8001E+00  0.7971E+00
REACH    1        0    36  0.2495E+02  0.2839E-02  0.2738E-02
REACH    2        0    36  0.5464E+02  0.7554E-02  0.3387E-02
REACH    3        0    36  0.1361E+02  0.1179E+00  0.1171E+00
REACH    4        0    36  0.9257E+02  0.3772E+00  0.3726E+00
REACH    1        0    37  0.2495E+02  0.1832E-02  0.1728E-02
REACH    2        0    37  0.5464E+02  0.6170E-02  0.3561E-02
REACH    3        0    37  0.1361E+02  0.1173E+00  0.1166E+00
REACH    4        0    37  0.9257E+02  0.3761E+00  0.3714E+00
REACH    1        0    38  0.2495E+02  0.1421E-02  0.1344E-02
REACH    2        0    38  0.5464E+02  0.5610E-02  0.3445E-02
REACH    3        0    38  0.1361E+02  0.1168E+00  0.1162E+00
REACH    4        0    38  0.9257E+02  0.3747E+00  0.3712E+00
REACH    1        0    39  0.2495E+02  0.1205E-02  0.1129E-02
REACH    2        0    39  0.5464E+02  0.5228E-02  0.3304E-02
REACH    3        0    39  0.1361E+02  0.1161E+00  0.1155E+00
REACH    4        0    39  0.9257E+02  0.3727E+00  0.3693E+00
REACH    1        0    40  0.2495E+02  0.1083E-02  0.1016E-02
REACH    2        0    40  0.5464E+02  0.4955E-02  0.3184E-02
REACH    3        0    40  0.1361E+02  0.1153E+00  0.1149E+00
REACH    4        0    40  0.9257E+02  0.3706E+00  0.3675E+00
REACH    1        0    41  0.2495E+02  0.1010E-02  0.9068E-03
REACH    2        0    41  0.5464E+02  0.4695E-02  0.2450E-02
REACH    3        0    41  0.1361E+02  0.1143E+00  0.1136E+00
REACH    4        0    41  0.9257E+02  0.3668E+00  0.3621E+00
REACH    1        0    42  0.2495E+02  0.9606E-03  0.8325E-03
REACH    2        0    42  0.5464E+02  0.4476E-02  0.1597E-02
REACH    3        0    42  0.1361E+02  0.1133E+00  0.1124E+00
REACH    4        0    42  0.9257E+02  0.3627E+00  0.3570E+00
REACH    1        0    43  0.2495E+02  0.9247E-03  0.8312E-03
REACH    2        0    43  0.5464E+02  0.4337E-02  0.1704E-02
REACH    3        0    43  0.1361E+02  0.1122E+00  0.1115E+00
REACH    4        0    43  0.9257E+02  0.3598E+00  0.3556E+00
REACH    1        0    44  0.2495E+02  0.8959E-03  0.8312E-03
REACH    2        0    44  0.5464E+02  0.4206E-02  0.2213E-02
REACH    3        0    44  0.1361E+02  0.1110E+00  0.1105E+00
REACH    4        0    44  0.9257E+02  0.3569E+00  0.3540E+00
REACH    1        0    45  0.2495E+02  0.8712E-03  0.8332E-03
REACH    2        0    45  0.5464E+02  0.4082E-02  0.2795E-02
REACH    3        0    45  0.1361E+02  0.1100E+00  0.1097E+00
REACH    4        0    45  0.9257E+02  0.3542E+00  0.3525E+00
REACH    1        0    46  0.2495E+02  0.6579E-02  0.6539E-02
REACH    2        0    46  0.5464E+02  0.1026E-01  0.1036E-01
REACH    3        0    46  0.1361E+02  0.1089E+00  0.1086E+00
REACH    4        0    46  0.9257E+02  0.3583E+00  0.3564E+00
REACH    1        0    47  0.2495E+02  0.1022E-02  0.9311E-03
REACH    2        0    47  0.5464E+02  0.3982E-02  0.1347E-02
REACH    3        0    47  0.1361E+02  0.1071E+00  0.1064E+00
REACH    4        0    47  0.9257E+02  0.3438E+00  0.3397E+00
REACH    1        0    48  0.2495E+02  0.1896E-01  0.1884E-01
REACH    2        0    48  0.5464E+02  0.3965E-01  0.3788E-01
REACH    3        0    48  0.1361E+02  0.1056E+00  0.1047E+00
REACH    4        0    48  0.9257E+02  0.3775E+00  0.3721E+00
REACH    1        0    49  0.2495E+02  0.1110E-02  0.9923E-03
REACH    2        0    49  0.5464E+02  0.3960E-02  0.4178E-03
REACH    3        0    49  0.1361E+02  0.1041E+00  0.1033E+00
REACH    4        0    49  0.9257E+02  0.3338E+00  0.3285E+00
REACH    1        0    50  0.2495E+02  0.9381E-03  0.8760E-03
REACH    2        0    50  0.5464E+02  0.3718E-02  0.1224E-02
REACH    3        0    50  0.1361E+02  0.1026E+00  0.1021E+00
REACH    4        0    50  0.9257E+02  0.3303E+00  0.3274E+00
REACH    1        0    51  0.2495E+02  0.8539E-03  0.7745E-03
REACH    2        0    51  0.5464E+02  0.3515E-02  0.1520E-02
REACH    3        0    51  0.1361E+02  0.1010E+00  0.1005E+00
REACH    4        0    51  0.9257E+02  0.3256E+00  0.3220E+00
REACH    1        0    52  0.2495E+02  0.1698E-01  0.1694E-01
REACH    2        0    52  0.5464E+02  0.3934E-01  0.4001E-01
REACH    3        0    52  0.1361E+02  0.1047E+00  0.1045E+00
REACH    4        0    52  0.9257E+02  0.3670E+00  0.3656E+00
REACH    1        0    53  0.2495E+02  0.1774E-02  0.1722E-02
REACH    2        0    53  0.5464E+02  0.5004E-02  0.1866E-02
REACH    3        0    53  0.1361E+02  0.9819E-01  0.9782E-01
REACH    4        0    53  0.9257E+02  0.3167E+00  0.3144E+00
REACH    1        0    54  0.2495E+02  0.9700E-03  0.8506E-03
REACH    2        0    54  0.5464E+02  0.3457E-02  0.1188E-02
REACH    3        0    54  0.1361E+02  0.9627E-01  0.9541E-01
REACH    4        0    54  0.9257E+02  0.3100E+00  0.3046E+00
REACH    1        0    55  0.2495E+02  0.2541E+00  0.2541E+00
REACH    2        0    55  0.5464E+02  0.5452E+00  0.5449E+00
REACH    3        0    55  0.1361E+02  0.1791E+00  0.1788E+00
REACH    4        0    55  0.9257E+02  0.9784E+00  0.9760E+00
REACH    1        0    56  0.2495E+02  0.1679E+00  0.1679E+00
REACH    2        0    56  0.5464E+02  0.3512E+00  0.3502E+00
REACH    3        0    56  0.1361E+02  0.1352E+00  0.1349E+00
REACH    4        0    56  0.9257E+02  0.7167E+00  0.7148E+00
REACH    1        0    57  0.2495E+02  0.2907E-02  0.2843E-02
REACH    2        0    57  0.5464E+02  0.6973E-02  0.3445E-02
REACH    3        0    57  0.1361E+02  0.9264E-01  0.9218E-01
REACH    4        0    57  0.9257E+02  0.3019E+00  0.2991E+00
REACH    1        0    58  0.2495E+02  0.1809E-02  0.1743E-02
REACH    2        0    58  0.5464E+02  0.5523E-02  0.3871E-02
REACH    3        0    58  0.1361E+02  0.9122E-01  0.9074E-01
REACH    4        0    58  0.9257E+02  0.2984E+00  0.2954E+00
REACH    1        0    59  0.2495E+02  0.5587E+00  0.5587E+00
REACH    2        0    59  0.5464E+02  0.1190E+01  0.1191E+01
REACH    3        0    59  0.1361E+02  0.2887E+00  0.2885E+00
REACH    4        0    59  0.9257E+02  0.1901E+01  0.1900E+01
REACH    1        0    60  0.2495E+02  0.7556E-02  0.7471E-02
REACH    2        0    60  0.5464E+02  0.1667E-01  0.1047E-01
REACH    3        0    60  0.1361E+02  0.9460E-01  0.9399E-01
REACH    4        0    60  0.9257E+02  0.3137E+00  0.3099E+00
REACH    1        0    61  0.2495E+02  0.3547E-02  0.3436E-02
REACH    2        0    61  0.5464E+02  0.9395E-02  0.1013E-01
REACH    3        0    61  0.1361E+02  0.9310E-01  0.9230E-01
REACH    4        0    61  0.9257E+02  0.3123E+00  0.3073E+00
REACH    1        0    62  0.2495E+02  0.2377E-02  0.2262E-02
REACH    2        0    62  0.5464E+02  0.8074E-02  0.4146E-02
REACH    3        0    62  0.1361E+02  0.9365E-01  0.9282E-01
REACH    4        0    62  0.9257E+02  0.3086E+00  0.3033E+00
REACH    1        0    63  0.2495E+02  0.1781E-02  0.1687E-02
REACH    2        0    63  0.5464E+02  0.7360E-02  0.4868E-02
REACH    3        0    63  0.1361E+02  0.9413E-01  0.9345E-01
REACH    4        0    63  0.9257E+02  0.3114E+00  0.3072E+00
REACH    1        0    64  0.2495E+02  0.1464E-02  0.1324E-02
REACH    2        0    64  0.5464E+02  0.6862E-02  0.3605E-02
REACH    3        0    64  0.1361E+02  0.9446E-01  0.9345E-01
REACH    4        0    64  0.9257E+02  0.3114E+00  0.3051E+00
REACH    1        0    65  0.2495E+02  0.1288E-02  0.1176E-02
REACH    2        0    65  0.5464E+02  0.6582E-02  0.3559E-02
REACH    3        0    65  0.1361E+02  0.9464E-01  0.9383E-01
REACH    4        0    65  0.9257E+02  0.3125E+00  0.3075E+00
REACH    1        0    66  0.2495E+02  0.1183E-02  0.1038E-02
REACH    2        0    66  0.5464E+02  0.6316E-02  0.2915E-02
REACH    3        0    66  0.1361E+02  0.9465E-01  0.9361E-01
REACH    4        0    66  0.9257E+02  0.3120E+00  0.3055E+00
REACH    1        0    67  0.2495E+02  0.3359E+00  0.3357E+00
REACH    2        0    67  0.5464E+02  0.8041E+00  0.8017E+00
REACH    3        0    67  0.1361E+02  0.2131E+00  0.2121E+00
REACH    4        0    67  0.9257E+02  0.1279E+01  0.1272E+01
REACH    1        0    68  0.2495E+02  0.4532E+00  0.4531E+00
REACH    2        0    68  0.5464E+02  0.8947E+00  0.8922E+00
REACH    3        0    68  0.1361E+02  0.1997E+00  0.1990E+00
REACH    4        0    68  0.9257E+02  0.1390E+01  0.1386E+01
REACH    1        0    69  0.2495E+02  0.5997E-02  0.5902E-02
REACH    2        0    69  0.5464E+02  0.1615E-01  0.9701E-02
REACH    3        0    69  0.1361E+02  0.9852E-01  0.9783E-01
REACH    4        0    69  0.9257E+02  0.3310E+00  0.3267E+00
REACH    1        0    70  0.2495E+02  0.3440E-02  0.3321E-02
REACH    2        0    70  0.5464E+02  0.1379E-01  0.1114E-01
REACH    3        0    70  0.1361E+02  0.9954E-01  0.9868E-01
REACH    4        0    70  0.9257E+02  0.3357E+00  0.3304E+00
REACH    1        0    71  0.2495E+02  0.2414E-02  0.2284E-02
REACH    2        0    71  0.5464E+02  0.1338E-01  0.1006E-01
REACH    3        0    71  0.1361E+02  0.1006E+00  0.9966E-01
REACH    4        0    71  0.9257E+02  0.3378E+00  0.3319E+00
REACH    1        0    72  0.2495E+02  0.1886E-02  0.1775E-02
REACH    2        0    72  0.5464E+02  0.1345E-01  0.1052E-01
REACH    3        0    72  0.1361E+02  0.1015E+00  0.1007E+00
REACH    4        0    72  0.9257E+02  0.3411E+00  0.3361E+00
REACH    1        0    73  0.2495E+02  0.1989E+00  0.1988E+00
REACH    2        0    73  0.5464E+02  0.4272E+00  0.4292E+00
REACH    3        0    73  0.1361E+02  0.1580E+00  0.1575E+00
REACH    4        0    73  0.9257E+02  0.8480E+00  0.8447E+00
REACH    1        0    74  0.2495E+02  0.2679E-02  0.2588E-02
REACH    2        0    74  0.5464E+02  0.1618E-01  0.9828E-02
REACH    3        0    74  0.1361E+02  0.1031E+00  0.1024E+00
REACH    4        0    74  0.9257E+02  0.3454E+00  0.3413E+00
REACH    1        0    75  0.2495E+02  0.1889E-02  0.1800E-02
REACH    2        0    75  0.5464E+02  0.1560E-01  0.1391E-01
REACH    3        0    75  0.1361E+02  0.1033E+00  0.1027E+00
REACH    4        0    75  0.9257E+02  0.3504E+00  0.3464E+00
REACH    1        0    76  0.2495E+02  0.1053E+01  0.1053E+01
REACH    2        0    76  0.5464E+02  0.2355E+01  0.2358E+01
REACH    3        0    76  0.1361E+02  0.8449E+00  0.8447E+00
REACH    4        0    76  0.9257E+02  0.4378E+01  0.4376E+01
REACH    1        0    77  0.2495E+02  0.1319E-01  0.1315E-01
REACH    2        0    77  0.5464E+02  0.3834E-01  0.3718E-01
REACH    3        0    77  0.1361E+02  0.1110E+00  0.1107E+00
REACH    4        0    77  0.9257E+02  0.3974E+00  0.3953E+00
REACH    1        0    78  0.2495E+02  0.5301E-02  0.5211E-02
REACH    2        0    78  0.5464E+02  0.2763E-01  0.2450E-01
REACH    3        0    78  0.1361E+02  0.1125E+00  0.1118E+00
REACH    4        0    78  0.9257E+02  0.3896E+00  0.3855E+00
REACH    1        0    79  0.2495E+02  0.3571E-02  0.3450E-02
REACH    2        0    79  0.5464E+02  0.2742E-01  0.2463E-01
REACH    3        0    79  0.1361E+02  0.1152E+00  0.1143E+00
REACH    4        0    79  0.9257E+02  0.3978E+00  0.3923E+00
REACH    1        0    80  0.2495E+02  0.2691E-02  0.2570E-02
REACH    2        0    80  0.5464E+02  0.2796E-01  0.2499E-01
REACH    3        0    80  0.1361E+02  0.1177E+00  0.1168E+00
REACH    4        0    80  0.9257E+02  0.4057E+00  0.4002E+00
REACH    1        0    81  0.2495E+02  0.2226E-02  0.2091E-02
REACH    2        0    81  0.5464E+02  0.2876E-01  0.2563E-01
REACH    3        0    81  0.1361E+02  0.1198E+00  0.1188E+00
REACH    4        0    81  0.9257E+02  0.4128E+00  0.4067E+00
REACH    1        0    82  0.2495E+02  0.9301E-01  0.9295E-01
REACH    2        0    82  0.5464E+02  0.2578E+00  0.2564E+00
REACH    3        0    82  0.1361E+02  0.1776E+00  0.1772E+00
REACH    4        0    82  0.9257E+02  0.7315E+00  0.7287E+00
REACH    1        0    83  0.2495E+02  0.5028E-01  0.5019E-01
REACH    2        0    83  0.5464E+02  0.1326E+00  0.1304E+00
REACH    3        0    83  0.1361E+02  0.1565E+00  0.1558E+00
REACH    4        0    83  0.9257E+02  0.5812E+00  0.5772E+00
REACH    1        0    84  0.2495E+02  0.2535E-02  0.2418E-02
REACH    2        0    84  0.5464E+02  0.3305E-01  0.3008E-01
REACH    3        0    84  0.1361E+02  0.1263E+00  0.1255E+00
REACH    4        0    84  0.9257E+02  0.4367E+00  0.4315E+00
REACH    1        0    85  0.2495E+02  0.2076E-02  0.1985E-02
REACH    2        0    85  0.5464E+02  0.3340E-01  0.3109E-01
REACH    3        0    85  0.1361E+02  0.1279E+00  0.1272E+00
REACH    4        0    85  0.9257E+02  0.4427E+00  0.4386E+00
REACH    1        0    86  0.2495E+02  0.1856E-02  0.1788E-02
REACH    2        0    86  0.5464E+02  0.3392E-01  0.3220E-01
REACH    3        0    86  0.1361E+02  0.1292E+00  0.1288E+00
REACH    4        0    86  0.9257E+02  0.4479E+00  0.4449E+00
REACH    1        0    87  0.2495E+02  0.7161E-01  0.7154E-01
REACH    2        0    87  0.5464E+02  0.1891E+00  0.1874E+00
REACH    3        0    87  0.1361E+02  0.1490E+00  0.1485E+00
REACH    4        0    87  0.9257E+02  0.6323E+00  0.6293E+00
REACH    1        0    88  0.2495E+02  0.1399E+00  0.1397E+00
REACH    2        0    88  0.5464E+02  0.3645E+00  0.3603E+00
REACH    3        0    88  0.1361E+02  0.2348E+00  0.2336E+00
REACH    4        0    88  0.9257E+02  0.9701E+00  0.9628E+00
REACH    1        0    89  0.2495E+02  0.3164E-02  0.2984E-02
REACH    2        0    89  0.5464E+02  0.3874E-01  0.3416E-01
REACH    3        0    89  0.1361E+02  0.1346E+00  0.1333E+00
REACH    4        0    89  0.9257E+02  0.4653E+00  0.4572E+00
REACH    1        0    90  0.2495E+02  0.2317E-02  0.2209E-02
REACH    2        0    90  0.5464E+02  0.3839E-01  0.3564E-01
REACH    3        0    90  0.1361E+02  0.1359E+00  0.1351E+00
REACH    4        0    90  0.9257E+02  0.4717E+00  0.4668E+00
REACH    1        0    91  0.2495E+02  0.2190E-01  0.2183E-01
REACH    2        0    91  0.5464E+02  0.7828E-01  0.7651E-01
REACH    3        0    91  0.1361E+02  0.1435E+00  0.1430E+00
REACH    4        0    91  0.9257E+02  0.5262E+00  0.5231E+00
REACH    1        0    92  0.2495E+02  0.1167E-01  0.1157E-01
REACH    2        0    92  0.5464E+02  0.6482E-01  0.6232E-01
REACH    3        0    92  0.1361E+02  0.1386E+00  0.1379E+00
REACH    4        0    92  0.9257E+02  0.5062E+00  0.5017E+00
REACH    1        0    93  0.2495E+02  0.2991E+00  0.2989E+00
REACH    2        0    93  0.5464E+02  0.7674E+00  0.7615E+00
REACH    3        0    93  0.1361E+02  0.1607E+00  0.1591E+00
REACH    4        0    93  0.9257E+02  0.1255E+01  0.1245E+01
REACH    1        0    94  0.2495E+02  0.4337E-02  0.4129E-02
REACH    2        0    94  0.5464E+02  0.4507E-01  0.3980E-01
REACH    3        0    94  0.1361E+02  0.1394E+00  0.1379E+00
REACH    4        0    94  0.9257E+02  0.4870E+00  0.4777E+00
REACH    1        0    95  0.2495E+02  0.2897E-02  0.2733E-02
REACH    2        0    95  0.5464E+02  0.4383E-01  0.3967E-01
REACH    3        0    95  0.1361E+02  0.1396E+00  0.1384E+00
REACH    4        0    95  0.9257E+02  0.4879E+00  0.4805E+00
REACH    1        0    96  0.2495E+02  0.2338E-02  0.2137E-02
REACH    2        0    96  0.5464E+02  0.4375E-01  0.3865E-01
REACH    3        0    96  0.1361E+02  0.1395E+00  0.1381E+00
REACH    4        0    96  0.9257E+02  0.4867E+00  0.4776E+00
REACH    1        0    97  0.2495E+02  0.2046E-02  0.1865E-02
REACH    2        0    97  0.5464E+02  0.4387E-01  0.3927E-01
REACH    3        0    97  0.1361E+02  0.1393E+00  0.1380E+00
REACH    4        0    97  0.9257E+02  0.4868E+00  0.4787E+00
REACH    1        0    98  0.2495E+02  0.1887E-02  0.1791E-02
REACH    2        0    98  0.5464E+02  0.4409E-01  0.4166E-01
REACH    3        0    98  0.1361E+02  0.1389E+00  0.1382E+00
REACH    4        0    98  0.9257E+02  0.4886E+00  0.4843E+00
REACH    1        0    99  0.2495E+02  0.3090E+00  0.3088E+00
REACH    2        0    99  0.5464E+02  0.7841E+00  0.7792E+00
REACH    3        0    99  0.1361E+02  0.2464E+00  0.2451E+00
REACH    4        0    99  0.9257E+02  0.1387E+01  0.1378E+01
REACH    1        0   100  0.2495E+02  0.3491E-02  0.3347E-02
REACH    2        0   100  0.5464E+02  0.4778E-01  0.4412E-01
REACH    3        0   100  0.1361E+02  0.1381E+00  0.1371E+00
REACH    4        0   100  0.9257E+02  0.4883E+00  0.4818E+00
REACH    1        0   101  0.2495E+02  0.2457E-02  0.2309E-02
REACH    2        0   101  0.5464E+02  0.4636E-01  0.4260E-01
REACH    3        0   101  0.1361E+02  0.1370E+00  0.1360E+00
REACH    4        0   101  0.9257E+02  0.4837E+00  0.4770E+00
REACH    1        0   102  0.2495E+02  0.2109E-02  0.1944E-02
REACH    2        0   102  0.5464E+02  0.4602E-01  0.4182E-01
REACH    3        0   102  0.1361E+02  0.1360E+00  0.1348E+00
REACH    4        0   102  0.9257E+02  0.4795E+00  0.4720E+00
REACH    1        0   103  0.2495E+02  0.4492E+00  0.4491E+00
REACH    2        0   103  0.5464E+02  0.9548E+00  0.9535E+00
REACH    3        0   103  0.1361E+02  0.2920E+00  0.2916E+00
REACH    4        0   103  0.9257E+02  0.1621E+01  0.1619E+01
REACH    1        0   104  0.2495E+02  0.6102E-01  0.6093E-01
REACH    2        0   104  0.5464E+02  0.1573E+00  0.1550E+00
REACH    3        0   104  0.1361E+02  0.1473E+00  0.1466E+00
REACH    4        0   104  0.9257E+02  0.6088E+00  0.6048E+00
REACH    1        0   105  0.2495E+02  0.3845E-02  0.3658E-02
REACH    2        0   105  0.5464E+02  0.4962E-01  0.4488E-01
REACH    3        0   105  0.1361E+02  0.1343E+00  0.1329E+00
REACH    4        0   105  0.9257E+02  0.4769E+00  0.4685E+00
REACH    1        0   106  0.2495E+02  0.2854E-02  0.2647E-02
REACH    2        0   106  0.5464E+02  0.4845E-01  0.4317E-01
REACH    3        0   106  0.1361E+02  0.1333E+00  0.1318E+00
REACH    4        0   106  0.9257E+02  0.4719E+00  0.4626E+00
REACH    1        0   107  0.2495E+02  0.2380E-02  0.2230E-02
REACH    2        0   107  0.5464E+02  0.4786E-01  0.4405E-01
REACH    3        0   107  0.1361E+02  0.1322E+00  0.1311E+00
REACH    4        0   107  0.9257E+02  0.4698E+00  0.4630E+00
REACH    1        0   108  0.2495E+02  0.2125E-02  0.1980E-02
REACH    2        0   108  0.5464E+02  0.4740E-01  0.4371E-01
REACH    3        0   108  0.1361E+02  0.1310E+00  0.1299E+00
REACH    4        0   108  0.9257E+02  0.4656E+00  0.4591E+00
REACH    1        0   109  0.2495E+02  0.1979E-02  0.1823E-02
REACH    2        0   109  0.5464E+02  0.4697E-01  0.4301E-01
REACH    3        0   109  0.1361E+02  0.1297E+00  0.1286E+00
REACH    4        0   109  0.9257E+02  0.4607E+00  0.4537E+00
REACH    1        0   110  0.2495E+02  0.1889E-02  0.1708E-02
REACH    2        0   110  0.5464E+02  0.4654E-01  0.4196E-01
REACH    3        0   110  0.1361E+02  0.1283E+00  0.1270E+00
REACH    4        0   110  0.9257E+02  0.4550E+00  0.4469E+00
REACH    1        0   111  0.2495E+02  0.1826E-02  0.1629E-02
REACH    2        0   111  0.5464E+02  0.4611E-01  0.4110E-01
REACH    3        0   111  0.1361E+02  0.1268E+00  0.1254E+00
REACH    4        0   111  0.9257E+02  0.4493E+00  0.4405E+00
REACH    1        0   112  0.2495E+02  0.1778E-02  0.1662E-02
REACH    2        0   112  0.5464E+02  0.4576E-01  0.4280E-01
REACH    3        0   112  0.1361E+02  0.1253E+00  0.1244E+00
REACH    4        0   112  0.9257E+02  0.4466E+00  0.4414E+00
REACH    1        0   113  0.2495E+02  0.1738E-02  0.1620E-02
REACH    2        0   113  0.5464E+02  0.4529E-01  0.4228E-01
REACH    3        0   113  0.1361E+02  0.1237E+00  0.1228E+00
REACH    4        0   113  0.9257E+02  0.4409E+00  0.4356E+00
REACH    1        0   114  0.2495E+02  0.1703E-02  0.1559E-02
REACH    2        0   114  0.5464E+02  0.4478E-01  0.4113E-01
REACH    3        0   114  0.1361E+02  0.1220E+00  0.1209E+00
REACH    4        0   114  0.9257E+02  0.4342E+00  0.4278E+00
REACH    1        0   115  0.2495E+02  0.1669E-02  0.1479E-02
REACH    2        0   115  0.5464E+02  0.4421E-01  0.3938E-01
REACH    3        0   115  0.1361E+02  0.1203E+00  0.1189E+00
REACH    4        0   115  0.9257E+02  0.4266E+00  0.4180E+00
REACH    1        0   116  0.2495E+02  0.1638E-02  0.1483E-02
REACH    2        0   116  0.5464E+02  0.4371E-01  0.3979E-01
REACH    3        0   116  0.1361E+02  0.1185E+00  0.1174E+00
REACH    4        0   116  0.9257E+02  0.4216E+00  0.4146E+00
REACH    1        0   117  0.2495E+02  0.1607E-02  0.1525E-02
REACH    2        0   117  0.5464E+02  0.4322E-01  0.4113E-01
REACH    3        0   117  0.1361E+02  0.1167E+00  0.1161E+00
REACH    4        0   117  0.9257E+02  0.4176E+00  0.4139E+00
REACH    1        0   118  0.2495E+02  0.1577E-02  0.1428E-02
REACH    2        0   118  0.5464E+02  0.4258E-01  0.3881E-01
REACH    3        0   118  0.1361E+02  0.1148E+00  0.1138E+00
REACH    4        0   118  0.9257E+02  0.4089E+00  0.4022E+00
REACH    1        0   119  0.2495E+02  0.6000E-02  0.5911E-02
REACH    2        0   119  0.5464E+02  0.4981E-01  0.4756E-01
REACH    3        0   119  0.1361E+02  0.1136E+00  0.1130E+00
REACH    4        0   119  0.9257E+02  0.4128E+00  0.4089E+00
REACH    1        0   120  0.2495E+02  0.1617E-02  0.1505E-02
REACH    2        0   120  0.5464E+02  0.4152E-01  0.3866E-01
REACH    3        0   120  0.1361E+02  0.1111E+00  0.1103E+00
REACH    4        0   120  0.9257E+02  0.3969E+00  0.3918E+00
REACH    1        0   121  0.2495E+02  0.3283E+00  0.3282E+00
REACH    2        0   121  0.5464E+02  0.6523E+00  0.6485E+00
REACH    3        0   121  0.1361E+02  0.1895E+00  0.1884E+00
REACH    4        0   121  0.9257E+02  0.1120E+01  0.1113E+01
REACH    1        0   122  0.2495E+02  0.3329E-02  0.3171E-02
REACH    2        0   122  0.5464E+02  0.4298E-01  0.3897E-01
REACH    3        0   122  0.1361E+02  0.1077E+00  0.1065E+00
REACH    4        0   122  0.9257E+02  0.3856E+00  0.3806E+00
REACH    1        0   123  0.2495E+02  0.2243E-02  0.2078E-02
REACH    2        0   123  0.5464E+02  0.4094E-01  0.3676E-01
REACH    3        0   123  0.1361E+02  0.1056E+00  0.1044E+00
REACH    4        0   123  0.9257E+02  0.3769E+00  0.3694E+00
REACH    1        0   124  0.2495E+02  0.1877E-02  0.1707E-02
REACH    2        0   124  0.5464E+02  0.3991E-01  0.3560E-01
REACH    3        0   124  0.1361E+02  0.1036E+00  0.1024E+00
REACH    4        0   124  0.9257E+02  0.3694E+00  0.3617E+00
REACH    1        0   125  0.2495E+02  0.1680E-02  0.1529E-02
REACH    2        0   125  0.5464E+02  0.3907E-01  0.3525E-01
REACH    3        0   125  0.1361E+02  0.1017E+00  0.1006E+00
REACH    4        0   125  0.9257E+02  0.3629E+00  0.3561E+00
REACH    1        0   126  0.2495E+02  0.4079E+00  0.4078E+00
REACH    2        0   126  0.5464E+02  0.8726E+00  0.8694E+00
REACH    3        0   126  0.1361E+02  0.2251E+00  0.2242E+00
REACH    4        0   126  0.9257E+02  0.1382E+01  0.1376E+01
REACH    1        0   127  0.2495E+02  0.5483E-02  0.5377E-02
REACH    2        0   127  0.5464E+02  0.4731E-01  0.4463E-01
REACH    3        0   127  0.1361E+02  0.1018E+00  0.1010E+00
REACH    4        0   127  0.9257E+02  0.3707E+00  0.3659E+00
REACH    1        0   128  0.2495E+02  0.2448E-02  0.2275E-02
REACH    2        0   128  0.5464E+02  0.3874E-01  0.3434E-01
REACH    3        0   128  0.1361E+02  0.9628E-01  0.9503E-01
REACH    4        0   128  0.9257E+02  0.3444E+00  0.3366E+00
REACH    1        0   129  0.2495E+02  0.1978E-02  0.1776E-02
REACH    2        0   129  0.5464E+02  0.3752E-01  0.3239E-01
REACH    3        0   129  0.1361E+02  0.9431E-01  0.9284E-01
REACH    4        0   129  0.9257E+02  0.3359E+00  0.3268E+00
REACH    1        0   130  0.2495E+02  0.1729E-02  0.1561E-02
REACH    2        0   130  0.5464E+02  0.3660E-01  0.3234E-01
REACH    3        0   130  0.1361E+02  0.9236E-01  0.9113E-01
REACH    4        0   130  0.9257E+02  0.3298E+00  0.3222E+00
REACH    1        0   131  0.2495E+02  0.1587E-02  0.1404E-02
REACH    2        0   131  0.5464E+02  0.3574E-01  0.3110E-01
REACH    3        0   131  0.1361E+02  0.9042E-01  0.8909E-01
REACH    4        0   131  0.9257E+02  0.3222E+00  0.3139E+00
REACH    1        0   132  0.2495E+02  0.1499E-02  0.1305E-02
REACH    2        0   132  0.5464E+02  0.3494E-01  0.3002E-01
REACH    3        0   132  0.1361E+02  0.8540E-01  0.8399E-01
REACH    4        0   132  0.9257E+02  0.3118E+00  0.3030E+00
REACH    1        0   133  0.2495E+02  0.7292E+00  0.7292E+00
REACH    2        0   133  0.5464E+02  0.1659E+01  0.1657E+01
REACH    3        0   133  0.1361E+02  0.1107E+00  0.1101E+00
REACH    4        0   133  0.9257E+02  0.1998E+01  0.1994E+01
REACH    1        0   134  0.2495E+02  0.4934E-02  0.4754E-02
REACH    2        0   134  0.5464E+02  0.3989E-01  0.3531E-01
REACH    3        0   134  0.1361E+02  0.7767E-01  0.7637E-01
REACH    4        0   134  0.9257E+02  0.2930E+00  0.2849E+00
REACH    1        0   135  0.2495E+02  0.2831E-02  0.2677E-02
REACH    2        0   135  0.5464E+02  0.3607E-01  0.3214E-01
REACH    3        0   135  0.1361E+02  0.6990E-01  0.6876E-01
REACH    4        0   135  0.9257E+02  0.2720E+00  0.2649E+00
REACH    1        0   136  0.2495E+02  0.3502E-01  0.3492E-01
REACH    2        0   136  0.5464E+02  0.1287E+00  0.1262E+00
REACH    3        0   136  0.1361E+02  0.1061E+00  0.1054E+00
REACH    4        0   136  0.9257E+02  0.4130E+00  0.4085E+00
REACH    1        0   137  0.2495E+02  0.2209E-02  0.2043E-02
REACH    2        0   137  0.5464E+02  0.3420E-01  0.3001E-01
REACH    3        0   137  0.1361E+02  0.5624E-01  0.5504E-01
REACH    4        0   137  0.9257E+02  0.2144E+00  0.2069E+00
REACH    1        0   138  0.2495E+02  0.1837E-02  0.1662E-02
REACH    2        0   138  0.5464E+02  0.3301E-01  0.2857E-01
REACH    3        0   138  0.1361E+02  0.4354E-01  0.4228E-01
REACH    4        0   138  0.9257E+02  0.1843E+00  0.1764E+00
REACH    1        0   139  0.2495E+02  0.6104E-02  0.5982E-02
REACH    2        0   139  0.5464E+02  0.3659E-01  0.3349E-01
REACH    3        0   139  0.1361E+02  0.4098E-01  0.4010E-01
REACH    4        0   139  0.9257E+02  0.1778E+00  0.1723E+00
REACH    1        0   140  0.2495E+02  0.1880E+00  0.1879E+00
REACH    2        0   140  0.5464E+02  0.3151E+00  0.3124E+00
REACH    3        0   140  0.1361E+02  0.5680E-01  0.5605E-01
REACH    4        0   140  0.9257E+02  0.4787E+00  0.4739E+00
REACH    1        0   141  0.2495E+02  0.1130E+00  0.1128E+00
REACH    2        0   141  0.5464E+02  0.2593E+00  0.2552E+00
REACH    3        0   141  0.1361E+02  0.7894E-01  0.7780E-01
REACH    4        0   141  0.9257E+02  0.4479E+00  0.4408E+00
REACH    1        0   142  0.2495E+02  0.2807E-02  0.2634E-02
REACH    2        0   142  0.5464E+02  0.3192E-01  0.2752E-01
REACH    3        0   142  0.1361E+02  0.3753E-01  0.3628E-01
REACH    4        0   142  0.9257E+02  0.1596E+00  0.1518E+00
REACH    1        0   143  0.2495E+02  0.2080E-02  0.1913E-02
REACH    2        0   143  0.5464E+02  0.3036E-01  0.2611E-01
REACH    3        0   143  0.1361E+02  0.3655E-01  0.3535E-01
REACH    4        0   143  0.9257E+02  0.1544E+00  0.1469E+00
REACH    1        0   144  0.2495E+02  0.1765E-02  0.1630E-02
REACH    2        0   144  0.5464E+02  0.2937E-01  0.2594E-01
REACH    3        0   144  0.1361E+02  0.3511E-01  0.3414E-01
REACH    4        0   144  0.9257E+02  0.1503E+00  0.1442E+00
REACH    1        0   145  0.2495E+02  0.1591E-02  0.1471E-02
REACH    2        0   145  0.5464E+02  0.2551E-01  0.2083E-01
REACH    3        0   145  0.1361E+02  0.3399E-01  0.3275E-01
REACH    4        0   145  0.9257E+02  0.1411E+00  0.1334E+00
REACH    1        0   146  0.2495E+02  0.1485E-02  0.1271E-02
REACH    2        0   146  0.5464E+02  0.2353E-01  0.1816E-01
REACH    3        0   146  0.1361E+02  0.3291E-01  0.3136E-01
REACH    4        0   146  0.9257E+02  0.1345E+00  0.1248E+00
REACH    1        0   147  0.2495E+02  0.1416E-02  0.1229E-02
REACH    2        0   147  0.5464E+02  0.2288E-01  0.1786E-01
REACH    3        0   147  0.1361E+02  0.3186E-01  0.3052E-01
REACH    4        0   147  0.9257E+02  0.1308E+00  0.1224E+00
REACH    1        0   148  0.2495E+02  0.1364E-02  0.1187E-02
REACH    2        0   148  0.5464E+02  0.2141E-01  0.1656E-01
REACH    3        0   148  0.1361E+02  0.3084E-01  0.2957E-01
REACH    4        0   148  0.9257E+02  0.1261E+00  0.1181E+00
REACH    1        0   149  0.2495E+02  0.1323E-02  0.1139E-02
REACH    2        0   149  0.5464E+02  0.1572E-01  0.1003E-01
REACH    3        0   149  0.1361E+02  0.2986E-01  0.2854E-01
REACH    4        0   149  0.9257E+02  0.1125E+00  0.1042E+00
REACH    1        0   150  0.2495E+02  0.1287E-02  0.1111E-02
REACH    2        0   150  0.5464E+02  0.1521E-01  0.1076E-01
REACH    3        0   150  0.1361E+02  0.2891E-01  0.2765E-01
REACH    4        0   150  0.9257E+02  0.1033E+00  0.9536E-01
REACH    1        0   151  0.2495E+02  0.1254E-02  0.1077E-02
REACH    2        0   151  0.5464E+02  0.1472E-01  0.1017E-01
REACH    3        0   151  0.1361E+02  0.2799E-01  0.2672E-01
REACH    4        0   151  0.9257E+02  0.9969E-01  0.9166E-01
REACH    1        0   152  0.2495E+02  0.1224E-02  0.1055E-02
REACH    2        0   152  0.5464E+02  0.1425E-01  0.9857E-02
REACH    3        0   152  0.1361E+02  0.2710E-01  0.2589E-01
REACH    4        0   152  0.9257E+02  0.9655E-01  0.8890E-01
REACH    1        0   153  0.2495E+02  0.2318E+00  0.2318E+00
REACH    2        0   153  0.5464E+02  0.5644E+00  0.5666E+00
REACH    3        0   153  0.1361E+02  0.1118E+00  0.1115E+00
REACH    4        0   153  0.9257E+02  0.7873E+00  0.7852E+00
REACH    1        0   154  0.2495E+02  0.7262E-01  0.7254E-01
REACH    2        0   154  0.5464E+02  0.1678E+00  0.1659E+00
REACH    3        0   154  0.1361E+02  0.6351E-01  0.6297E-01
REACH    4        0   154  0.9257E+02  0.3051E+00  0.3016E+00
REACH    1        0   155  0.2495E+02  0.2434E-02  0.2332E-02
REACH    2        0   155  0.5464E+02  0.1540E-01  0.1281E-01
REACH    3        0   155  0.1361E+02  0.2517E-01  0.2443E-01
REACH    4        0   155  0.9257E+02  0.9360E-01  0.8894E-01
REACH    1        0   156  0.2495E+02  0.1797E-02  0.1602E-02
REACH    2        0   156  0.5464E+02  0.1415E-01  0.9023E-02
REACH    3        0   156  0.1361E+02  0.2431E-01  0.2290E-01
REACH    4        0   156  0.9257E+02  0.8646E-01  0.7760E-01
REACH    1        0   157  0.2495E+02  0.3275E-02  0.3151E-02
REACH    2        0   157  0.5464E+02  0.1528E-01  0.1234E-01
REACH    3        0   157  0.1361E+02  0.2353E-01  0.2264E-01
REACH    4        0   157  0.9257E+02  0.8779E-01  0.8216E-01
REACH    1        0   158  0.2495E+02  0.1408E-02  0.1272E-02
REACH    2        0   158  0.5464E+02  0.1300E-01  0.8969E-02
REACH    3        0   158  0.1361E+02  0.2277E-01  0.2130E-01
REACH    4        0   158  0.9257E+02  0.8136E-01  0.7203E-01
REACH    1        0   159  0.2495E+02  0.1248E+01  0.1248E+01
REACH    2        0   159  0.5464E+02  0.2225E+01  0.2222E+01
REACH    3        0   159  0.1361E+02  0.1684E+00  0.1674E+00
REACH    4        0   159  0.9257E+02  0.2553E+01  0.2547E+01
REACH    1        0   160  0.2495E+02  0.6911E-02  0.6785E-02
REACH    2        0   160  0.5464E+02  0.2094E-01  0.1471E-01
REACH    3        0   160  0.1361E+02  0.2207E-01  0.2117E-01
REACH    4        0   160  0.9257E+02  0.8552E-01  0.7982E-01
REACH    1        0   161  0.2495E+02  0.3496E-02  0.3380E-02
REACH    2        0   161  0.5464E+02  0.1603E-01  0.1261E-01
REACH    3        0   161  0.1361E+02  0.2114E-01  0.1970E-01
REACH    4        0   161  0.9257E+02  0.8024E-01  0.7119E-01
REACH    1        0   162  0.2495E+02  0.4018E-01  0.4008E-01
REACH    2        0   162  0.5464E+02  0.6322E-01  0.6414E-01
REACH    3        0   162  0.1361E+02  0.4650E-01  0.4577E-01
REACH    4        0   162  0.9257E+02  0.1563E+00  0.1517E+00
REACH    1        0   163  0.2495E+02  0.2427E-02  0.2228E-02
REACH    2        0   163  0.5464E+02  0.1409E-01  0.8856E-02
REACH    3        0   163  0.1361E+02  0.1997E-01  0.1853E-01
REACH    4        0   163  0.9257E+02  0.7225E-01  0.6318E-01
REACH    1        0   164  0.2495E+02  0.1927E-02  0.1714E-02
REACH    2        0   164  0.5464E+02  0.1314E-01  0.7549E-02
REACH    3        0   164  0.1361E+02  0.1928E-01  0.1775E-01
REACH    4        0   164  0.9257E+02  0.6871E-01  0.6212E-01
REACH    1        0   165  0.2495E+02  0.1679E-02  0.1570E-02
REACH    2        0   165  0.5464E+02  0.1260E-01  0.9588E-02
REACH    3        0   165  0.1361E+02  0.1866E-01  0.1699E-01
REACH    4        0   165  0.9257E+02  0.6859E-01  0.5810E-01
REACH    1        0   166  0.2495E+02  0.1535E-02  0.1332E-02
REACH    2        0   166  0.5464E+02  0.1198E-01  0.6908E-02
REACH    3        0   166  0.1361E+02  0.1806E-01  0.1613E-01
REACH    4        0   166  0.9257E+02  0.6369E-01  0.5456E-01
REACH    1        0   167  0.2495E+02  0.1445E-02  0.1176E-02
REACH    2        0   167  0.5464E+02  0.1146E-01  0.4715E-02
REACH    3        0   167  0.1361E+02  0.1748E-01  0.1555E-01
REACH    4        0   167  0.9257E+02  0.5960E-01  0.4744E-01
REACH    1        0   168  0.2495E+02  0.1381E-02  0.1129E-02
REACH    2        0   168  0.5464E+02  0.1106E-01  0.4575E-02
REACH    3        0   168  0.1361E+02  0.1692E-01  0.1510E-01
REACH    4        0   168  0.9257E+02  0.5775E-01  0.4631E-01
REACH    1        0   169  0.2495E+02  0.1333E-02  0.1123E-02
REACH    2        0   169  0.5464E+02  0.1071E-01  0.5222E-02
REACH    3        0   169  0.1361E+02  0.1637E-01  0.1486E-01
REACH    4        0   169  0.9257E+02  0.5692E-01  0.4737E-01
REACH    1        0   170  0.2495E+02  0.1293E-02  0.1077E-02
REACH    2        0   170  0.5464E+02  0.1034E-01  0.4870E-02
REACH    3        0   170  0.1361E+02  0.1585E-01  0.1430E-01
REACH    4        0   170  0.9257E+02  0.5483E-01  0.4507E-01
REACH    1        0   171  0.2495E+02  0.5711E-02  0.5572E-02
REACH    2        0   171  0.5464E+02  0.1784E-01  0.1168E-01
REACH    3        0   171  0.1361E+02  0.2669E-01  0.2570E-01
REACH    4        0   171  0.9257E+02  0.7323E-01  0.6488E-01
REACH    1        0   172  0.2495E+02  0.1326E-02  0.1138E-02
REACH    2        0   172  0.5464E+02  0.9800E-02  0.8015E-02
REACH    3        0   172  0.1361E+02  0.1494E-01  0.1358E-01
REACH    4        0   172  0.9257E+02  0.5505E-01  0.4860E-01
REACH    1        0   173  0.2495E+02  0.1245E-02  0.1036E-02
REACH    2        0   173  0.5464E+02  0.9403E-02  0.3674E-02
REACH    3        0   173  0.1361E+02  0.1444E-01  0.1295E-01
REACH    4        0   173  0.9257E+02  0.4899E-01  0.3843E-01
REACH    1        0   174  0.2495E+02  0.2309E-02  0.2167E-02
REACH    2        0   174  0.5464E+02  0.1047E-01  0.6776E-02
REACH    3        0   174  0.1361E+02  0.1487E-01  0.1384E-01
REACH    4        0   174  0.9257E+02  0.5196E-01  0.4665E-01
REACH    1        0   175  0.2495E+02  0.1195E-02  0.1074E-02
REACH    2        0   175  0.5464E+02  0.8893E-02  0.5498E-02
REACH    3        0   175  0.1361E+02  0.1354E-01  0.1204E-01
REACH    4        0   175  0.9257E+02  0.4787E-01  0.3690E-01
REACH    1        0   176  0.2495E+02  0.1141E-02  0.9388E-03
REACH    2        0   176  0.5464E+02  0.8498E-02  0.5421E-02
REACH    3        0   176  0.1361E+02  0.1310E-01  0.1165E-01
REACH    4        0   176  0.9257E+02  0.4643E-01  0.3727E-01
REACH    1        0   177  0.2495E+02  0.1102E-02  0.8746E-03
REACH    2        0   177  0.5464E+02  0.8185E-02  0.2963E-02
REACH    3        0   177  0.1361E+02  0.1269E-01  0.1105E-01
REACH    4        0   177  0.9257E+02  0.4244E-01  0.3407E-01
REACH    1        0   178  0.2495E+02  0.1070E-02  0.9246E-03
REACH    2        0   178  0.5464E+02  0.7994E-02  0.2667E-02
REACH    3        0   178  0.1361E+02  0.1228E-01  0.1080E-01
REACH    4        0   178  0.9257E+02  0.4098E-01  0.3188E-01
REACH    1        0   179  0.2495E+02  0.9837E-01  0.9829E-01
REACH    2        0   179  0.5464E+02  0.1211E+00  0.1199E+00
REACH    3        0   179  0.1361E+02  0.1189E-01  0.1129E-01
REACH    4        0   179  0.9257E+02  0.1578E+00  0.1569E+00
REACH    1        0   180  0.2495E+02  0.7187E-01  0.7176E-01
REACH    2        0   180  0.5464E+02  0.1454E+00  0.1427E+00
REACH    3        0   180  0.1361E+02  0.4369E-01  0.4291E-01
REACH    4        0   180  0.9257E+02  0.2351E+00  0.2302E+00
REACH    1        0   181  0.2495E+02  0.2070E-02  0.1950E-02
REACH    2        0   181  0.5464E+02  0.8800E-02  0.4310E-02
REACH    3        0   181  0.1361E+02  0.1137E-01  0.1051E-01
REACH    4        0   181  0.9257E+02  0.4028E-01  0.3046E-01
REACH    1        0   182  0.2495E+02  0.1522E-02  0.1303E-02
REACH    2        0   182  0.5464E+02  0.7857E-02  0.2907E-02
REACH    3        0   182  0.1361E+02  0.1096E-01  0.9370E-02
REACH    4        0   182  0.9257E+02  0.3690E-01  0.2772E-01
REACH    1        0   183  0.2495E+02  0.1279E-02  0.1137E-02
REACH    2        0   183  0.5464E+02  0.7474E-02  0.2018E-02
REACH    3        0   183  0.1361E+02  0.1061E-01  0.9015E-02
REACH    4        0   183  0.9257E+02  0.3486E-01  0.2415E-01
REACH    1        0   184  0.2495E+02  0.1145E-02  0.1038E-02
REACH    2        0   184  0.5464E+02  0.7168E-02  0.3676E-02
REACH    3        0   184  0.1361E+02  0.1027E-01  0.9485E-02
REACH    4        0   184  0.9257E+02  0.3700E-01  0.3213E-01
REACH    1        0   185  0.2495E+02  0.1065E-02  0.9462E-03
REACH    2        0   185  0.5464E+02  0.6876E-02  0.3965E-02
REACH    3        0   185  0.1361E+02  0.9943E-02  0.9086E-02
REACH    4        0   185  0.9257E+02  0.3541E-01  0.2952E-01
REACH    1        0   186  0.2495E+02  0.1100E-02  0.9781E-03
REACH    2        0   186  0.5464E+02  0.7290E-02  0.4233E-02
REACH    3        0   186  0.1361E+02  0.9626E-02  0.8743E-02
REACH    4        0   186  0.9257E+02  0.3461E-01  0.2893E-01
REACH    1        0   187  0.2495E+02  0.5971E-01  0.5956E-01
REACH    2        0   187  0.5464E+02  0.1469E+00  0.1447E+00
REACH    3        0   187  0.1361E+02  0.5734E-01  0.5630E-01
REACH    4        0   187  0.9257E+02  0.2348E+00  0.2328E+00
REACH    1        0   188  0.2495E+02  0.1715E-02  0.1597E-02
REACH    2        0   188  0.5464E+02  0.7401E-02  0.2946E-02
REACH    3        0   188  0.1361E+02  0.9317E-02  0.8462E-02
REACH    4        0   188  0.9257E+02  0.3198E-01  0.2025E-01
REACH    1        0   189  0.2495E+02  0.7677E+00  0.7676E+00
REACH    2        0   189  0.5464E+02  0.1526E+01  0.1524E+01
REACH    3        0   189  0.1361E+02  0.1944E+00  0.1935E+00
REACH    4        0   189  0.9257E+02  0.1841E+01  0.1841E+01
REACH    1        0   190  0.2495E+02  0.4924E-02  0.4717E-02
REACH    2        0   190  0.5464E+02  0.1240E-01  0.6555E-02
REACH    3        0   190  0.1361E+02  0.9575E-02  0.8057E-02
REACH    4        0   190  0.9257E+02  0.3542E-01  0.2091E-01
REACH    1        0   191  0.2495E+02  0.2606E-02  0.2401E-02
REACH    2        0   191  0.5464E+02  0.9030E-02  0.3533E-02
REACH    3        0   191  0.1361E+02  0.8975E-02  0.7482E-02
REACH    4        0   191  0.9257E+02  0.3104E-01  0.2161E-01
REACH    1        0   192  0.2495E+02  0.1882E-02  0.1690E-02
REACH    2        0   192  0.5464E+02  0.8081E-02  0.3146E-02
REACH    3        0   192  0.1361E+02  0.8678E-02  0.7263E-02
REACH    4        0   192  0.9257E+02  0.2977E-01  0.2047E-01
REACH    1        0   193  0.2495E+02  0.1510E-02  0.1384E-02
REACH    2        0   193  0.5464E+02  0.7549E-02  0.2114E-02
REACH    3        0   193  0.1361E+02  0.8392E-02  0.6757E-02
REACH    4        0   193  0.9257E+02  0.2759E-01  0.1727E-01
REACH    1        0   194  0.2495E+02  0.1307E-02  0.1088E-02
REACH    2        0   194  0.5464E+02  0.7036E-02  0.1568E-02
REACH    3        0   194  0.1361E+02  0.8116E-02  0.6514E-02
REACH    4        0   194  0.9257E+02  0.2619E-01  0.1584E-01
REACH    1        0   195  0.2495E+02  0.1190E-02  0.1085E-02
REACH    2        0   195  0.5464E+02  0.6825E-02  0.3296E-02
REACH    3        0   195  0.1361E+02  0.1422E-01  0.1346E-01
REACH    4        0   195  0.9257E+02  0.4453E-01  0.4401E-01
REACH    1        0   196  0.2495E+02  0.1116E-02  0.1005E-02
REACH    2        0   196  0.5464E+02  0.6545E-02  0.2265E-02
REACH    3        0   196  0.1361E+02  0.7647E-02  0.6224E-02
REACH    4        0   196  0.9257E+02  0.2566E-01  0.1191E-01
REACH    1        0   197  0.2495E+02  0.1066E-02  0.8631E-03
REACH    2        0   197  0.5464E+02  0.6212E-02  0.1309E-02
REACH    3        0   197  0.1361E+02  0.7387E-02  0.5925E-02
REACH    4        0   197  0.9257E+02  0.2383E-01  0.1464E-01
REACH    1        0   198  0.2495E+02  0.1027E-02  0.8126E-03
REACH    2        0   198  0.5464E+02  0.5977E-02  0.7727E-03
REACH    3        0   198  0.1361E+02  0.7145E-02  0.5586E-02
REACH    4        0   198  0.9257E+02  0.2241E-01  0.1266E-01
REACH    1        0   199  0.2495E+02  0.9961E-03  0.7778E-03
REACH    2        0   199  0.5464E+02  0.5766E-02  0.4215E-03
REACH    3        0   199  0.1361E+02  0.6913E-02  0.6042E-02
REACH    4        0   199  0.9257E+02  0.2207E-01  0.1520E-01
REACH    1        0   200  0.2495E+02  0.1714E-01  0.1699E-01
REACH    2        0   200  0.5464E+02  0.2613E-01  0.2141E-01
REACH    3        0   200  0.1361E+02  0.2382E-01  0.2276E-01
REACH    4        0   200  0.9257E+02  0.8444E-01  0.8445E-01
REACH    1        0   201  0.2495E+02  0.6001E+00  0.6000E+00
REACH    2        0   201  0.5464E+02  0.1323E+01  0.1320E+01
REACH    3        0   201  0.1361E+02  0.1909E+00  0.1898E+00
REACH    4        0   201  0.9257E+02  0.1580E+01  0.1572E+01
REACH    1        0   202  0.2495E+02  0.4128E-02  0.3906E-02
REACH    2        0   202  0.5464E+02  0.1065E-01  0.5758E-02
REACH    3        0   202  0.1361E+02  0.7260E-02  0.6187E-02
REACH    4        0   202  0.9257E+02  0.2736E-01  0.1419E-01
REACH    1        0   203  0.2495E+02  0.2271E-02  0.2111E-02
REACH    2        0   203  0.5464E+02  0.7861E-02  0.2448E-02
REACH    3        0   203  0.1361E+02  0.6733E-02  0.5101E-02
REACH    4        0   203  0.9257E+02  0.2239E-01  0.1311E-01
REACH    1        0   204  0.2495E+02  0.3680E+00  0.3679E+00
REACH    2        0   204  0.5464E+02  0.7329E+00  0.7300E+00
REACH    3        0   204  0.1361E+02  0.1966E+00  0.1956E+00
REACH    4        0   204  0.9257E+02  0.9831E+00  0.9819E+00
REACH    1        0   205  0.2495E+02  0.3381E-02  0.3161E-02
REACH    2        0   205  0.5464E+02  0.9697E-02  0.3272E-02
REACH    3        0   205  0.1361E+02  0.7345E-02  0.5755E-02
REACH    4        0   205  0.9257E+02  0.2362E-01  0.8453E-02
REACH    1        0   206  0.2495E+02  0.2070E-02  0.1846E-02
REACH    2        0   206  0.5464E+02  0.7765E-02  0.2177E-02
REACH    3        0   206  0.1361E+02  0.6797E-02  0.5177E-02
REACH    4        0   206  0.9257E+02  0.2141E-01  0.1092E-01
REACH    1        0   207  0.2495E+02  0.1614E-02  0.1365E-02
REACH    2        0   207  0.5464E+02  0.7063E-02  0.1070E-02
REACH    3        0   207  0.1361E+02  0.6558E-02  0.4738E-02
REACH    4        0   207  0.9257E+02  0.1938E-01  0.8411E-02
REACH    1        0   208  0.2495E+02  0.1372E-02  0.1121E-02
REACH    2        0   208  0.5464E+02  0.6608E-02  0.4704E-03
REACH    3        0   208  0.1361E+02  0.6328E-02  0.4491E-02
REACH    4        0   208  0.9257E+02  0.1807E-01  0.1036E-01
REACH    1        0   209  0.2495E+02  0.1235E-02  0.1014E-02
REACH    2        0   209  0.5464E+02  0.6301E-02  0.5916E-03
REACH    3        0   209  0.1361E+02  0.6108E-02  0.4499E-02
REACH    4        0   209  0.9257E+02  0.1776E-01  0.6901E-02
REACH    1        0   210  0.2495E+02  0.1258E+01  0.1258E+01
REACH    2        0   210  0.5464E+02  0.2254E+01  0.2252E+01
REACH    3        0   210  0.1361E+02  0.2083E+00  0.2077E+00
REACH    4        0   210  0.9257E+02  0.2576E+01  0.2574E+01
REACH    1        0   211  0.2495E+02  0.1268E-01  0.1259E-01
REACH    2        0   211  0.5464E+02  0.2069E-01  0.1531E-01
REACH    3        0   211  0.1361E+02  0.9232E-02  0.8616E-02
REACH    4        0   211  0.9257E+02  0.3827E-01  0.2917E-01
REACH    1        0   212  0.2495E+02  0.1661E-01  0.1654E-01
REACH    2        0   212  0.5464E+02  0.3004E-01  0.3148E-01
REACH    3        0   212  0.1361E+02  0.1003E-01  0.9492E-02
REACH    4        0   212  0.9257E+02  0.5424E-01  0.5601E-01
REACH    1        0   213  0.2495E+02  0.4227E-02  0.4108E-02
REACH    2        0   213  0.5464E+02  0.1322E-01  0.9655E-02
REACH    3        0   213  0.1361E+02  0.1612E-01  0.1526E-01
REACH    4        0   213  0.9257E+02  0.5118E-01  0.4548E-01
REACH    1        0   214  0.2495E+02  0.2311E-02  0.2140E-02
REACH    2        0   214  0.5464E+02  0.8557E-02  0.3659E-02
REACH    3        0   214  0.1361E+02  0.5956E-02  0.4713E-02
REACH    4        0   214  0.9257E+02  0.2078E-01  0.1186E-01
REACH    1        0   215  0.2495E+02  0.1859E-02  0.1663E-02
REACH    2        0   215  0.5464E+02  0.7828E-02  0.3011E-02
REACH    3        0   215  0.1361E+02  0.5727E-02  0.4318E-02
REACH    4        0   215  0.9257E+02  0.1929E-01  0.1039E-01
REACH    1        0   216  0.2495E+02  0.1614E-02  0.1418E-02
REACH    2        0   216  0.5464E+02  0.7346E-02  0.2423E-02
REACH    3        0   216  0.1361E+02  0.5523E-02  0.4144E-02
REACH    4        0   216  0.9257E+02  0.1888E-01  0.1004E-01
REACH    1        0   217  0.2495E+02  0.1471E-02  0.1283E-02
REACH    2        0   217  0.5464E+02  0.4199E-01  0.3965E-01
REACH    3        0   217  0.1361E+02  0.5479E-02  0.4557E-02
REACH    4        0   217  0.9257E+02  0.5819E-01  0.5375E-01
REACH    1        0   218  0.2495E+02  0.1382E-02  0.1263E-02
REACH    2        0   218  0.5464E+02  0.6934E-02  0.2510E-02
REACH    3        0   218  0.1361E+02  0.5142E-02  0.3762E-02
REACH    4        0   218  0.9257E+02  0.1715E-01  0.6688E-02
REACH    1        0   219  0.2495E+02  0.1320E-02  0.1153E-02
REACH    2        0   219  0.5464E+02  0.6574E-02  0.2647E-02
REACH    3        0   219  0.1361E+02  0.4961E-02  0.3732E-02
REACH    4        0   219  0.9257E+02  0.1687E-01  0.9018E-02
REACH    1        0   220  0.2495E+02  0.1273E-02  0.1095E-02
REACH    2        0   220  0.5464E+02  0.6312E-02  0.1969E-02
REACH    3        0   220  0.1361E+02  0.4788E-02  0.3497E-02
REACH    4        0   220  0.9257E+02  0.1560E-01  0.7380E-02
REACH    1        0   221  0.2495E+02  0.1235E-02  0.1135E-02
REACH    2        0   221  0.5464E+02  0.6158E-02  0.3007E-02
REACH    3        0   221  0.1361E+02  0.4622E-02  0.3416E-02
REACH    4        0   221  0.9257E+02  0.1621E-01  0.1106E-01
REACH    1        0   222  0.2495E+02  0.1552E+01  0.1551E+01
REACH    2        0   222  0.5464E+02  0.2902E+01  0.2900E+01
REACH    3        0   222  0.1361E+02  0.2685E+00  0.2676E+00
REACH    4        0   222  0.9257E+02  0.3283E+01  0.3280E+01
REACH    1        0   223  0.2495E+02  0.1326E-01  0.1311E-01
REACH    2        0   223  0.5464E+02  0.2505E-01  0.1951E-01
REACH    3        0   223  0.1361E+02  0.5618E-02  0.4558E-02
REACH    4        0   223  0.9257E+02  0.3473E-01  0.2245E-01
REACH    1        0   224  0.2495E+02  0.4439E-02  0.4281E-02
REACH    2        0   224  0.5464E+02  0.1201E-01  0.9421E-02
REACH    3        0   224  0.1361E+02  0.5011E-02  0.3718E-02
REACH    4        0   224  0.9257E+02  0.2332E-01  0.1477E-01
REACH    1        0   225  0.2495E+02  0.3045E-02  0.2863E-02
REACH    2        0   225  0.5464E+02  0.1027E-01  0.5019E-02
REACH    3        0   225  0.1361E+02  0.4827E-02  0.3513E-02
REACH    4        0   225  0.9257E+02  0.1835E-01  0.1012E-01
REACH    1        0   226  0.2495E+02  0.2338E-02  0.2232E-02
REACH    2        0   226  0.5464E+02  0.9336E-02  0.4629E-02
REACH    3        0   226  0.1361E+02  0.4651E-02  0.3303E-02
REACH    4        0   226  0.9257E+02  0.1740E-01  0.9024E-02
REACH    1        0   227  0.2495E+02  0.5450E-02  0.5312E-02
REACH    2        0   227  0.5464E+02  0.2636E-01  0.2294E-01
REACH    3        0   227  0.1361E+02  0.4929E-02  0.3945E-02
REACH    4        0   227  0.9257E+02  0.3602E-01  0.3147E-01
REACH    1        0   228  0.2495E+02  0.1864E-02  0.1678E-02
REACH    2        0   228  0.5464E+02  0.8311E-02  0.3475E-02
REACH    3        0   228  0.1361E+02  0.4323E-02  0.2967E-02
REACH    4        0   228  0.9257E+02  0.1525E-01  0.8963E-02
REACH    1        0   229  0.2495E+02  0.9278E-01  0.9265E-01
REACH    2        0   229  0.5464E+02  0.1963E+00  0.1941E+00
REACH    3        0   229  0.1361E+02  0.3633E-01  0.3539E-01
REACH    4        0   229  0.9257E+02  0.2495E+00  0.2451E+00
REACH    1        0   230  0.2495E+02  0.2313E-02  0.2156E-02
REACH    2        0   230  0.5464E+02  0.8676E-02  0.3478E-02
REACH    3        0   230  0.1361E+02  0.4226E-02  0.3077E-02
REACH    4        0   230  0.9257E+02  0.1502E-01  0.5680E-02
REACH    1        0   231  0.2495E+02  0.1846E-02  0.1740E-02
REACH    2        0   231  0.5464E+02  0.7902E-02  0.4918E-02
REACH    3        0   231  0.1361E+02  0.4026E-02  0.3263E-02
REACH    4        0   231  0.9257E+02  0.1634E-01  0.1127E-01
REACH    1        0   232  0.2495E+02  0.1648E-02  0.1545E-02
REACH    2        0   232  0.5464E+02  0.7466E-02  0.3224E-02
REACH    3        0   232  0.1361E+02  0.3883E-02  0.2523E-02
REACH    4        0   232  0.9257E+02  0.1362E-01  0.5560E-02
REACH    1        0   233  0.2495E+02  0.1086E+00  0.1084E+00
REACH    2        0   233  0.5464E+02  0.2376E+00  0.2346E+00
REACH    3        0   233  0.1361E+02  0.2645E-01  0.2532E-01
REACH    4        0   233  0.9257E+02  0.2725E+00  0.2672E+00
REACH    1        0   234  0.2495E+02  0.2298E-02  0.2103E-02
REACH    2        0   234  0.5464E+02  0.8075E-02  0.2216E-02
REACH    3        0   234  0.1361E+02  0.3769E-02  0.2359E-02
REACH    4        0   234  0.9257E+02  0.1205E-01  0.1978E-02
REACH    1        0   235  0.2495E+02  0.6594E-01  0.6584E-01
REACH    2        0   235  0.5464E+02  0.1271E+00  0.1255E+00
REACH    3        0   235  0.1361E+02  0.2151E-01  0.2079E-01
REACH    4        0   235  0.9257E+02  0.1614E+00  0.1580E+00
REACH    1        0   236  0.2495E+02  0.2254E-02  0.2146E-02
REACH    2        0   236  0.5464E+02  0.7817E-02  0.3533E-02
REACH    3        0   236  0.1361E+02  0.3607E-02  0.2661E-02
REACH    4        0   236  0.9257E+02  0.1336E-01  0.5757E-02
REACH    1        0   237  0.2495E+02  0.1789E-02  0.1676E-02
REACH    2        0   237  0.5464E+02  0.7071E-02  0.4264E-02
REACH    3        0   237  0.1361E+02  0.3453E-02  0.2650E-02
REACH    4        0   237  0.9257E+02  0.1383E-01  0.8867E-02
REACH    1        0   238  0.2495E+02  0.1579E-02  0.1420E-02
REACH    2        0   238  0.5464E+02  0.6610E-02  0.2919E-02
REACH    3        0   238  0.1361E+02  0.3332E-02  0.2166E-02
REACH    4        0   238  0.9257E+02  0.1176E-01  0.4963E-02
REACH    1        0   239  0.2495E+02  0.1457E-02  0.1303E-02
REACH    2        0   239  0.5464E+02  0.6297E-02  0.2423E-02
REACH    3        0   239  0.1361E+02  0.3216E-02  0.2057E-02
REACH    4        0   239  0.9257E+02  0.1092E-01  0.3847E-02
REACH    1        0   240  0.2495E+02  0.1379E-02  0.1211E-02
REACH    2        0   240  0.5464E+02  0.6018E-02  0.1916E-02
REACH    3        0   240  0.1361E+02  0.3104E-02  0.1857E-02
REACH    4        0   240  0.9257E+02  0.9998E-02  0.2566E-02
REACH    1        0   241  0.2495E+02  0.1325E-02  0.1156E-02
REACH    2        0   241  0.5464E+02  0.5785E-02  0.1594E-02
REACH    3        0   241  0.1361E+02  0.2997E-02  0.1757E-02
REACH    4        0   241  0.9257E+02  0.9365E-02  0.1862E-02
REACH    1        0   242  0.2495E+02  0.1282E-02  0.1107E-02
REACH    2        0   242  0.5464E+02  0.5566E-02  0.1262E-02
REACH    3        0   242  0.1361E+02  0.2895E-02  0.1621E-02
REACH    4        0   242  0.9257E+02  0.8693E-02  0.1093E-02
REACH    1        0   243  0.2495E+02  0.9394E-02  0.9212E-02
REACH    2        0   243  0.5464E+02  0.1407E-01  0.1026E-01
REACH    3        0   243  0.1361E+02  0.2796E-02  0.1495E-02
REACH    4        0   243  0.9257E+02  0.1737E-01  0.8311E-02
REACH    1        0   244  0.2495E+02  0.1360E-02  0.1192E-02
REACH    2        0   244  0.5464E+02  0.5333E-02  0.5753E-03
REACH    3        0   244  0.1361E+02  0.2701E-02  0.1477E-02
REACH    4        0   244  0.9257E+02  0.7479E-02  0.8525E-03
REACH    1        0   245  0.2495E+02  0.1255E-02  0.1101E-02
REACH    2        0   245  0.5464E+02  0.5093E-02  0.9341E-03
REACH    3        0   245  0.1361E+02  0.2610E-02  0.1483E-02
REACH    4        0   245  0.9257E+02  0.7663E-02  0.7107E-03
REACH    1        0   246  0.2495E+02  0.1194E-02  0.1020E-02
REACH    2        0   246  0.5464E+02  0.4871E-02  0.6811E-03
REACH    3        0   246  0.1361E+02  0.2523E-02  0.1303E-02
REACH    4        0   246  0.9257E+02  0.7055E-02  0.0000E+00
REACH    1        0   247  0.2495E+02  0.1151E-02  0.9756E-03
REACH    2        0   247  0.5464E+02  0.4690E-02  0.4259E-03
REACH    3        0   247  0.1361E+02  0.2439E-02  0.1180E-02
REACH    4        0   247  0.9257E+02  0.6510E-02  0.0000E+00
REACH    1        0   248  0.2495E+02  0.1116E-02  0.9203E-03
REACH    2        0   248  0.5464E+02  0.4505E-02  0.0000E+00
REACH    3        0   248  0.1361E+02  0.2358E-02  0.9924E-03
REACH    4        0   248  0.9257E+02  0.5735E-02  0.0000E+00
REACH    1        0   249  0.2495E+02  0.1086E-02  0.9171E-03
REACH    2        0   249  0.5464E+02  0.4378E-02  0.1066E-03
REACH    3        0   249  0.1361E+02  0.2281E-02  0.1028E-02
REACH    4        0   249  0.9257E+02  0.5723E-02  0.0000E+00
REACH    1        0   250  0.2495E+02  0.1059E-02  0.9034E-03
REACH    2        0   250  0.5464E+02  0.4245E-02  0.1424E-03
REACH    3        0   250  0.1361E+02  0.2206E-02  0.1069E-02
REACH    4        0   250  0.9257E+02  0.5650E-02  0.0000E+00
REACH    1        0   251  0.2495E+02  0.1033E-02  0.8729E-03
REACH    2        0   251  0.5464E+02  0.4100E-02  0.1009E-03
REACH    3        0   251  0.1361E+02  0.2134E-02  0.9972E-03
REACH    4        0   251  0.9257E+02  0.5392E-02  0.0000E+00
REACH    1        0   252  0.2495E+02  0.1009E-02  0.8543E-03
REACH    2        0   252  0.5464E+02  0.3972E-02  0.1929E-03
REACH    3        0   252  0.1361E+02  0.2065E-02  0.9552E-03
REACH    4        0   252  0.9257E+02  0.5304E-02  0.0000E+00
REACH    1        0   253  0.2495E+02  0.9850E-03  0.7965E-03
REACH    2        0   253  0.5464E+02  0.3810E-02  0.0000E+00
REACH    3        0   253  0.1361E+02  0.1998E-02  0.7235E-03
REACH    4        0   253  0.9257E+02  0.4745E-02  0.0000E+00
REACH    1        0   254  0.2495E+02  0.9622E-03  0.7687E-03
REACH    2        0   254  0.5464E+02  0.3682E-02  0.0000E+00
REACH    3        0   254  0.1361E+02  0.1934E-02  0.5821E-03
REACH    4        0   254  0.9257E+02  0.4475E-02  0.0000E+00
REACH    1        0   255  0.2495E+02  0.9399E-03  0.7574E-03
REACH    2        0   255  0.5464E+02  0.3574E-02  0.0000E+00
REACH    3        0   255  0.1361E+02  0.1872E-02  0.5647E-03
REACH    4        0   255  0.9257E+02  0.4333E-02  0.0000E+00
REACH    1        0   256  0.2495E+02  0.9182E-03  0.7349E-03
REACH    2        0   256  0.5464E+02  0.3459E-02  0.0000E+00
REACH    3        0   256  0.1361E+02  0.1813E-02  0.5215E-03
REACH    4        0   256  0.9257E+02  0.4170E-02  0.0000E+00
REACH    1        0   257  0.2495E+02  0.8971E-03  0.7370E-03
REACH    2        0   257  0.5464E+02  0.3373E-02  0.0000E+00
REACH    3        0   257  0.1361E+02  0.1755E-02  0.5678E-03
REACH    4        0   257  0.9257E+02  0.4101E-02  0.0000E+00
REACH    1        0   258  0.2495E+02  0.1358E-01  0.1343E-01
REACH    2        0   258  0.5464E+02  0.3772E-01  0.3372E-01
REACH    3        0   258  0.1361E+02  0.6477E-02  0.5656E-02
REACH    4        0   258  0.9257E+02  0.4482E-01  0.3498E-01
REACH    1        0   259  0.2495E+02  0.1050E-02  0.8890E-03
REACH    2        0   259  0.5464E+02  0.3475E-02  0.0000E+00
REACH    3        0   259  0.1361E+02  0.1689E-02  0.3205E-03
REACH    4        0   259  0.9257E+02  0.3699E-02  0.0000E+00
REACH    1        0   260  0.2495E+02  0.1175E-02  0.1059E-02
REACH    2        0   260  0.5464E+02  0.3572E-02  0.2442E-03
REACH    3        0   260  0.1361E+02  0.1629E-02  0.6467E-03
REACH    4        0   260  0.9257E+02  0.4161E-02  0.0000E+00
REACH    1        0   261  0.2495E+02  0.2182E-02  0.2029E-02
REACH    2        0   261  0.5464E+02  0.1115E-01  0.6737E-02
REACH    3        0   261  0.1361E+02  0.4523E-02  0.3840E-02
REACH    4        0   261  0.9257E+02  0.1556E-01  0.6583E-02
REACH    1        0   262  0.2495E+02  0.9735E-03  0.8186E-03
REACH    2        0   262  0.5464E+02  0.3234E-02  0.1119E-03
REACH    3        0   262  0.1361E+02  0.1572E-02  0.2575E-03
REACH    4        0   262  0.9257E+02  0.3524E-02  0.0000E+00
REACH    1        0   263  0.2495E+02  0.8781E-03  0.7356E-03
REACH    2        0   263  0.5464E+02  0.3067E-02  0.0000E+00
REACH    3        0   263  0.1361E+02  0.1519E-02  0.4147E-03
REACH    4        0   263  0.9257E+02  0.3468E-02  0.0000E+00
REACH    1        0   264  0.2495E+02  0.8135E+00  0.8134E+00
REACH    2        0   264  0.5464E+02  0.1957E+01  0.1955E+01
REACH    3        0   264  0.1361E+02  0.2448E+00  0.2446E+00
REACH    4        0   264  0.9257E+02  0.2346E+01  0.2342E+01
REACH    1        0   265  0.2495E+02  0.4682E-02  0.4552E-02
REACH    2        0   265  0.5464E+02  0.1021E-01  0.5661E-02
REACH    3        0   265  0.1361E+02  0.2576E-02  0.1270E-02
REACH    4        0   265  0.9257E+02  0.1179E-01  0.3663E-02
REACH    1        0   266  0.2495E+02  0.2367E-02  0.2217E-02
REACH    2        0   266  0.5464E+02  0.6465E-02  0.2697E-02
REACH    3        0   266  0.1361E+02  0.2112E-02  0.1061E-02
REACH    4        0   266  0.9257E+02  0.8307E-02  0.2111E-02
REACH    1        0   267  0.2495E+02  0.1674E-02  0.1517E-02
REACH    2        0   267  0.5464E+02  0.5595E-02  0.1795E-02
REACH    3        0   267  0.1361E+02  0.2033E-02  0.9159E-03
REACH    4        0   267  0.9257E+02  0.7088E-02  0.7400E-03
REACH    1        0   268  0.2495E+02  0.1320E-02  0.1188E-02
REACH    2        0   268  0.5464E+02  0.5107E-02  0.1651E-02
REACH    3        0   268  0.1361E+02  0.1958E-02  0.9632E-03
REACH    4        0   268  0.9257E+02  0.6826E-02  0.7091E-03
REACH    1        0   269  0.2495E+02  0.1129E-02  0.9995E-03
REACH    2        0   269  0.5464E+02  0.4767E-02  0.1516E-02
REACH    3        0   269  0.1361E+02  0.1887E-02  0.9510E-03
REACH    4        0   269  0.9257E+02  0.6522E-02  0.6535E-03
REACH    1        0   270  0.2495E+02  0.1020E-02  0.9326E-03
REACH    2        0   270  0.5464E+02  0.4556E-02  0.1934E-02
REACH    3        0   270  0.1361E+02  0.2098E-02  0.1401E-02
REACH    4        0   270  0.9257E+02  0.7574E-02  0.2166E-02
REACH    1        0   271  0.2495E+02  0.9529E-03  0.8234E-03
REACH    2        0   271  0.5464E+02  0.4309E-02  0.1462E-02
REACH    3        0   271  0.1361E+02  0.1754E-02  0.8972E-03
REACH    4        0   271  0.9257E+02  0.6120E-02  0.1221E-02
REACH    1        0   272  0.2495E+02  0.9076E-03  0.7561E-03
REACH    2        0   272  0.5464E+02  0.4111E-02  0.7278E-03
REACH    3        0   272  0.1361E+02  0.1692E-02  0.6707E-03
REACH    4        0   272  0.9257E+02  0.5022E-02  0.0000E+00
REACH    1        0   273  0.2495E+02  0.8740E-03  0.7155E-03
REACH    2        0   273  0.5464E+02  0.3945E-02  0.2862E-03
REACH    3        0   273  0.1361E+02  0.1632E-02  0.5361E-03
REACH    4        0   273  0.9257E+02  0.4314E-02  0.0000E+00
REACH    1        0   274  0.2495E+02  0.8468E-03  0.7356E-03
REACH    2        0   274  0.5464E+02  0.3845E-02  0.5929E-03
REACH    3        0   274  0.1361E+02  0.1575E-02  0.6768E-03
REACH    4        0   274  0.9257E+02  0.4636E-02  0.0000E+00
REACH    1        0   275  0.2495E+02  0.8234E-03  0.7333E-03
REACH    2        0   275  0.5464E+02  0.3729E-02  0.1028E-02
REACH    3        0   275  0.1361E+02  0.1520E-02  0.8181E-03
REACH    4        0   275  0.9257E+02  0.5092E-02  0.3315E-03
REACH    1        0   276  0.2495E+02  0.8023E-03  0.6758E-03
REACH    2        0   276  0.5464E+02  0.3563E-02  0.7488E-03
REACH    3        0   276  0.1361E+02  0.1468E-02  0.6631E-03
REACH    4        0   276  0.9257E+02  0.4542E-02  0.0000E+00
REACH    1        0   277  0.2495E+02  0.7826E-03  0.6371E-03
REACH    2        0   277  0.5464E+02  0.3420E-02  0.2353E-03
REACH    3        0   277  0.1361E+02  0.1417E-02  0.4645E-03
REACH    4        0   277  0.9257E+02  0.3720E-02  0.0000E+00
REACH    1        0   278  0.2495E+02  0.7640E-03  0.6568E-03
REACH    2        0   278  0.5464E+02  0.3340E-02  0.3650E-03
REACH    3        0   278  0.1361E+02  0.1369E-02  0.5276E-03
REACH    4        0   278  0.9257E+02  0.3807E-02  0.0000E+00
REACH    1        0   279  0.2495E+02  0.7461E-03  0.6815E-03
REACH    2        0   279  0.5464E+02  0.3489E-02  0.1039E-02
REACH    3        0   279  0.1361E+02  0.1472E-02  0.8734E-03
REACH    4        0   279  0.9257E+02  0.4803E-02  0.5969E-03
REACH    1        0   280  0.2495E+02  0.3871E+00  0.3870E+00
REACH    2        0   280  0.5464E+02  0.7771E+00  0.7776E+00
REACH    3        0   280  0.1361E+02  0.1532E+00  0.1535E+00
REACH    4        0   280  0.9257E+02  0.1008E+01  0.1007E+01
REACH    1        0   281  0.2495E+02  0.8309E+00  0.8308E+00
REACH    2        0   281  0.5464E+02  0.1733E+01  0.1732E+01
REACH    3        0   281  0.1361E+02  0.1879E+00  0.1876E+00
REACH    4        0   281  0.9257E+02  0.2029E+01  0.2027E+01
REACH    1        0   282  0.2495E+02  0.2323E+00  0.2322E+00
REACH    2        0   282  0.5464E+02  0.4049E+00  0.4033E+00
REACH    3        0   282  0.1361E+02  0.4557E-01  0.4510E-01
REACH    4        0   282  0.9257E+02  0.4738E+00  0.4708E+00
REACH    1        0   283  0.2495E+02  0.6128E-02  0.6054E-02
REACH    2        0   283  0.5464E+02  0.1307E-01  0.1052E-01
REACH    3        0   283  0.1361E+02  0.3123E-02  0.2252E-02
REACH    4        0   283  0.9257E+02  0.1943E-01  0.1379E-01
REACH    1        0   284  0.2495E+02  0.3660E-02  0.3629E-02
REACH    2        0   284  0.5464E+02  0.1018E-01  0.7678E-02
REACH    3        0   284  0.1361E+02  0.2927E-02  0.2713E-02
REACH    4        0   284  0.9257E+02  0.1674E-01  0.1493E-01
REACH    1        0   285  0.2495E+02  0.2547E-02  0.2457E-02
REACH    2        0   285  0.5464E+02  0.8731E-02  0.6376E-02
REACH    3        0   285  0.1361E+02  0.2805E-02  0.2179E-02
REACH    4        0   285  0.9257E+02  0.1464E-01  0.1066E-01
REACH    1        0   286  0.2495E+02  0.1970E-02  0.1863E-02
REACH    2        0   286  0.5464E+02  0.7877E-02  0.5147E-02
REACH    3        0   286  0.1361E+02  0.2690E-02  0.1920E-02
REACH    4        0   286  0.9257E+02  0.1289E-01  0.8047E-02
REACH    1        0   287  0.2495E+02  0.1659E-02  0.1538E-02
REACH    2        0   287  0.5464E+02  0.7305E-02  0.4303E-02
REACH    3        0   287  0.1361E+02  0.2580E-02  0.1726E-02
REACH    4        0   287  0.9257E+02  0.1161E-01  0.6342E-02
REACH    1        0   288  0.2495E+02  0.1481E-02  0.1327E-02
REACH    2        0   288  0.5464E+02  0.6859E-02  0.3194E-02
REACH    3        0   288  0.1361E+02  0.2475E-02  0.1419E-02
REACH    4        0   288  0.9257E+02  0.9965E-02  0.3703E-02
REACH    1        0   289  0.2495E+02  0.1373E-02  0.1214E-02
REACH    2        0   289  0.5464E+02  0.6522E-02  0.2573E-02
REACH    3        0   289  0.1361E+02  0.2376E-02  0.1250E-02
REACH    4        0   289  0.9257E+02  0.8956E-02  0.2268E-02
REACH    1        0   290  0.2495E+02  0.1301E-02  0.1179E-02
REACH    2        0   290  0.5464E+02  0.6275E-02  0.2924E-02
REACH    3        0   290  0.1361E+02  0.2281E-02  0.1360E-02
REACH    4        0   290  0.9257E+02  0.9208E-02  0.3128E-02
REACH    1        0   291  0.2495E+02  0.1249E-02  0.1148E-02
REACH    2        0   291  0.5464E+02  0.6042E-02  0.3328E-02
REACH    3        0   291  0.1361E+02  0.2191E-02  0.1446E-02
REACH    4        0   291  0.9257E+02  0.9500E-02  0.4484E-02
REACH    1        0   292  0.2495E+02  0.1207E-02  0.1108E-02
REACH    2        0   292  0.5464E+02  0.5809E-02  0.3286E-02
REACH    3        0   292  0.1361E+02  0.2105E-02  0.1395E-02
REACH    4        0   292  0.9257E+02  0.9218E-02  0.4719E-02
REACH    1        0   293  0.2495E+02  0.1173E-02  0.1076E-02
REACH    2        0   293  0.5464E+02  0.5595E-02  0.3139E-02
REACH    3        0   293  0.1361E+02  0.2024E-02  0.1331E-02
REACH    4        0   293  0.9257E+02  0.8828E-02  0.4502E-02
REACH    1        0   294  0.2495E+02  0.1141E-02  0.1048E-02
REACH    2        0   294  0.5464E+02  0.5392E-02  0.3015E-02
REACH    3        0   294  0.1361E+02  0.1946E-02  0.1275E-02
REACH    4        0   294  0.9257E+02  0.8477E-02  0.4284E-02
REACH    1        0   295  0.2495E+02  0.3870E-01  0.3864E-01
REACH    2        0   295  0.5464E+02  0.9840E-01  0.9861E-01
REACH    3        0   295  0.1361E+02  0.2792E-01  0.2797E-01
REACH    4        0   295  0.9257E+02  0.1443E+00  0.1445E+00
REACH    1        0   296  0.2495E+02  0.1474E-02  0.1371E-02
REACH    2        0   296  0.5464E+02  0.5646E-02  0.1690E-02
REACH    3        0   296  0.1361E+02  0.1972E-02  0.8146E-03
REACH    4        0   296  0.9257E+02  0.6669E-02  0.8559E-03
REACH    1        0   297  0.2495E+02  0.1245E-02  0.1160E-02
REACH    2        0   297  0.5464E+02  0.5215E-02  0.2722E-02
REACH    3        0   297  0.1361E+02  0.1857E-02  0.1214E-02
REACH    4        0   297  0.9257E+02  0.7925E-02  0.2781E-02
REACH    1        0   298  0.2495E+02  0.1141E-02  0.1042E-02
REACH    2        0   298  0.5464E+02  0.4944E-02  0.2562E-02
REACH    3        0   298  0.1361E+02  0.1787E-02  0.1113E-02
REACH    4        0   298  0.9257E+02  0.7509E-02  0.3142E-02
REACH    1        0   299  0.2495E+02  0.1077E-02  0.9820E-03
REACH    2        0   299  0.5464E+02  0.4739E-02  0.2338E-02
REACH    3        0   299  0.1361E+02  0.1720E-02  0.1039E-02
REACH    4        0   299  0.9257E+02  0.7065E-02  0.2848E-02
REACH    1        0   300  0.2495E+02  0.1033E-02  0.9765E-03
REACH    2        0   300  0.5464E+02  0.4595E-02  0.2788E-02
REACH    3        0   300  0.1361E+02  0.1656E-02  0.1170E-02
REACH    4        0   300  0.9257E+02  0.7506E-02  0.4111E-02
REACH    1        0   301  0.2495E+02  0.9992E-03  0.9370E-03
REACH    2        0   301  0.5464E+02  0.4423E-02  0.2890E-02
REACH    3        0   301  0.1361E+02  0.1595E-02  0.1170E-02
REACH    4        0   301  0.9257E+02  0.7473E-02  0.4694E-02
REACH    1        0   302  0.2495E+02  0.9710E-03  0.8750E-03
REACH    2        0   302  0.5464E+02  0.4234E-02  0.2179E-02
REACH    3        0   302  0.1361E+02  0.1537E-02  0.9362E-03
REACH    4        0   302  0.9257E+02  0.6402E-02  0.2951E-02
REACH    1        0   303  0.2495E+02  0.9459E-03  0.8610E-03
REACH    2        0   303  0.5464E+02  0.4100E-02  0.1923E-02
REACH    3        0   303  0.1361E+02  0.1481E-02  0.8610E-03
REACH    4        0   303  0.9257E+02  0.5948E-02  0.2262E-02
REACH    1        0   304  0.2495E+02  0.9226E-03  0.8574E-03
REACH    2        0   304  0.5464E+02  0.3981E-02  0.2123E-02
REACH    3        0   304  0.1361E+02  0.1428E-02  0.9167E-03
REACH    4        0   304  0.9257E+02  0.6088E-02  0.2701E-02
REACH    1        0   305  0.2495E+02  0.9006E-03  0.8255E-03
REACH    2        0   305  0.5464E+02  0.3838E-02  0.2041E-02
REACH    3        0   305  0.1361E+02  0.1378E-02  0.8720E-03
REACH    4        0   305  0.9257E+02  0.5850E-02  0.2647E-02
REACH    1        0   306  0.2495E+02  0.8794E-03  0.7791E-03
REACH    2        0   306  0.5464E+02  0.3687E-02  0.1499E-02
REACH    3        0   306  0.1361E+02  0.1329E-02  0.6949E-03
REACH    4        0   306  0.9257E+02  0.5025E-02  0.1458E-02
REACH    1        0   307  0.2495E+02  0.8590E-03  0.7864E-03
REACH    2        0   307  0.5464E+02  0.3593E-02  0.1536E-02
REACH    3        0   307  0.1361E+02  0.1283E-02  0.7078E-03
REACH    4        0   307  0.9257E+02  0.4973E-02  0.1422E-02
REACH    1        0   308  0.2495E+02  0.8391E-03  0.7285E-03
REACH    2        0   308  0.5464E+02  0.3439E-02  0.1101E-02
REACH    3        0   308  0.1361E+02  0.1238E-02  0.5657E-03
REACH    4        0   308  0.9257E+02  0.4299E-02  0.5508E-03
REACH    1        0   309  0.2495E+02  0.8198E-03  0.7415E-03
REACH    2        0   309  0.5464E+02  0.3359E-02  0.1138E-02
REACH    3        0   309  0.1361E+02  0.1196E-02  0.5741E-03
REACH    4        0   309  0.9257E+02  0.4252E-02  0.5263E-03
REACH    1        0   310  0.2495E+02  0.8010E-03  0.7093E-03
REACH    2        0   310  0.5464E+02  0.3239E-02  0.1059E-02
REACH    3        0   310  0.1361E+02  0.1155E-02  0.5446E-03
REACH    4        0   310  0.9257E+02  0.4055E-02  0.3398E-03
REACH    1        0   311  0.2495E+02  0.7826E-03  0.6884E-03
REACH    2        0   311  0.5464E+02  0.3133E-02  0.8750E-03
REACH    3        0   311  0.1361E+02  0.1117E-02  0.4761E-03
REACH    4        0   311  0.9257E+02  0.3717E-02  0.5768E-04
REACH    1        0   312  0.2495E+02  0.7646E-03  0.6951E-03
REACH    2        0   312  0.5464E+02  0.3059E-02  0.1028E-02
REACH    3        0   312  0.1361E+02  0.1079E-02  0.5213E-03
REACH    4        0   312  0.9257E+02  0.3834E-02  0.2274E-03
REACH    1        0   313  0.2495E+02  0.7471E-03  0.6622E-03
REACH    2        0   313  0.5464E+02  0.2948E-02  0.9565E-03
REACH    3        0   313  0.1361E+02  0.1044E-02  0.4873E-03
REACH    4        0   313  0.9257E+02  0.3650E-02  0.1347E-03
REACH    1        0   314  0.2495E+02  0.6311E-02  0.6127E-02
REACH    2        0   314  0.5464E+02  0.1165E-01  0.7618E-02
REACH    3        0   314  0.1361E+02  0.1159E-02  0.1615E-03
REACH    4        0   314  0.9257E+02  0.1025E-01  0.1412E-02
REACH    1        0   315  0.2495E+02  0.8283E-03  0.7428E-03
REACH    2        0   315  0.5464E+02  0.2893E-02  0.4953E-03
REACH    3        0   315  0.1361E+02  0.9768E-03  0.2150E-03
REACH    4        0   315  0.9257E+02  0.2771E-02  0.0000E+00
REACH    1        0   316  0.2495E+02  0.7534E-03  0.7009E-03
REACH    2        0   316  0.5464E+02  0.2779E-02  0.8827E-03
REACH    3        0   316  0.1361E+02  0.9451E-03  0.4014E-03
REACH    4        0   316  0.9257E+02  0.3276E-02  0.2082E-03
REACH    1        0   317  0.2495E+02  0.7115E-03  0.6469E-03
REACH    2        0   317  0.5464E+02  0.2659E-02  0.1030E-02
REACH    3        0   317  0.1361E+02  0.9149E-03  0.4658E-03
REACH    4        0   317  0.9257E+02  0.3422E-02  0.3469E-03
REACH    1        0   318  0.2495E+02  0.6829E-03  0.6016E-03
REACH    2        0   318  0.5464E+02  0.2550E-02  0.7817E-03
REACH    3        0   318  0.1361E+02  0.8859E-03  0.3812E-03
REACH    4        0   318  0.9257E+02  0.3026E-02  0.8057E-04
REACH    1        0   319  0.2495E+02  0.6611E-03  0.5931E-03
REACH    2        0   319  0.5464E+02  0.2480E-02  0.7160E-03
REACH    3        0   319  0.1361E+02  0.8580E-03  0.3584E-03
REACH    4        0   319  0.9257E+02  0.2877E-02  0.5494E-04
REACH    1        0   320  0.2495E+02  0.6428E-03  0.5521E-03
REACH    2        0   320  0.5464E+02  0.2380E-02  0.4657E-03
REACH    3        0   320  0.1361E+02  0.8313E-03  0.2791E-03
REACH    4        0   320  0.9257E+02  0.2489E-02  0.0000E+00
REACH    1        0   321  0.2495E+02  0.3000E+00  0.2999E+00
REACH    2        0   321  0.5464E+02  0.5404E+00  0.5388E+00
REACH    3        0   321  0.1361E+02  0.7697E-01  0.7664E-01
[...]
REACH    3        0   285  0.1361E+02  0.4341E-02  0.3460E-02
REACH    4        0   285  0.9257E+02  0.3885E-01  0.3283E-01
REACH    1        0   286  0.2495E+02  0.1947E-01  0.1932E-01
REACH    2        0   286  0.5464E+02  0.2950E-01  0.2567E-01
REACH    3        0   286  0.1361E+02  0.4180E-02  0.3117E-02
REACH    4        0   286  0.9257E+02  0.3739E-01  0.3044E-01
REACH    1        0   287  0.2495E+02  0.1962E-01  0.1951E-01
REACH    2        0   287  0.5464E+02  0.2941E-01  0.2678E-01
REACH    3        0   287  0.1361E+02  0.4025E-02  0.3290E-02
REACH    4        0   287  0.9257E+02  0.3835E-01  0.3383E-01
REACH    1        0   288  0.2495E+02  0.1972E-01  0.1962E-01
REACH    2        0   288  0.5464E+02  0.2925E-01  0.2652E-01
REACH    3        0   288  0.1361E+02  0.3878E-02  0.3151E-02
REACH    4        0   288  0.9257E+02  0.3765E-01  0.3275E-01
REACH    1        0   289  0.2495E+02  0.1980E-01  0.1971E-01
REACH    2        0   289  0.5464E+02  0.2908E-01  0.2683E-01
REACH    3        0   289  0.1361E+02  0.3738E-02  0.2978E-02
REACH    4        0   289  0.9257E+02  0.3750E-01  0.3350E-01
REACH    1        0   290  0.2495E+02  0.1984E-01  0.1974E-01
REACH    2        0   290  0.5464E+02  0.2885E-01  0.2631E-01
REACH    3        0   290  0.1361E+02  0.3603E-02  0.2922E-02
REACH    4        0   290  0.9257E+02  0.3665E-01  0.3208E-01
REACH    1        0   291  0.2495E+02  0.1984E-01  0.1976E-01
REACH    2        0   291  0.5464E+02  0.2863E-01  0.2650E-01
REACH    3        0   291  0.1361E+02  0.3475E-02  0.2847E-02
REACH    4        0   291  0.9257E+02  0.3650E-01  0.3373E-01
REACH    1        0   292  0.2495E+02  0.7872E+00  0.7872E+00
REACH    2        0   292  0.5464E+02  0.1613E+01  0.1611E+01
REACH    3        0   292  0.1361E+02  0.2274E+00  0.2271E+00
REACH    4        0   292  0.9257E+02  0.1959E+01  0.1961E+01
REACH    1        0   293  0.2495E+02  0.2435E-01  0.2426E-01
REACH    2        0   293  0.5464E+02  0.3536E-01  0.3296E-01
REACH    3        0   293  0.1361E+02  0.4425E-02  0.3757E-02
REACH    4        0   293  0.9257E+02  0.4524E-01  0.3819E-01
REACH    1        0   294  0.2495E+02  0.2172E-01  0.2165E-01
REACH    2        0   294  0.5464E+02  0.3157E-01  0.2977E-01
REACH    3        0   294  0.1361E+02  0.3921E-02  0.3418E-02
REACH    4        0   294  0.9257E+02  0.4130E-01  0.3759E-01
REACH    1        0   295  0.2495E+02  0.2083E-01  0.2073E-01
REACH    2        0   295  0.5464E+02  0.3036E-01  0.2783E-01
REACH    3        0   295  0.1361E+02  0.3775E-02  0.2953E-02
REACH    4        0   295  0.9257E+02  0.3858E-01  0.3344E-01
REACH    1        0   296  0.2495E+02  0.2033E-01  0.2024E-01
REACH    2        0   296  0.5464E+02  0.2958E-01  0.2734E-01
REACH    3        0   296  0.1361E+02  0.3637E-02  0.3003E-02
REACH    4        0   296  0.9257E+02  0.3786E-01  0.3382E-01
REACH    1        0   297  0.2495E+02  0.2000E-01  0.1992E-01
REACH    2        0   297  0.5464E+02  0.2899E-01  0.2676E-01
REACH    3        0   297  0.1361E+02  0.3505E-02  0.2908E-02
REACH    4        0   297  0.9257E+02  0.3691E-01  0.3307E-01
REACH    1        0   298  0.2495E+02  0.1975E-01  0.1968E-01
REACH    2        0   298  0.5464E+02  0.2848E-01  0.2661E-01
REACH    3        0   298  0.1361E+02  0.3380E-02  0.2859E-02
REACH    4        0   298  0.9257E+02  0.3644E-01  0.3325E-01
REACH    1        0   299  0.2495E+02  0.2399E-01  0.2393E-01
REACH    2        0   299  0.5464E+02  0.3791E-01  0.3684E-01
REACH    3        0   299  0.1361E+02  0.6617E-02  0.6425E-02
REACH    4        0   299  0.9257E+02  0.5177E-01  0.5372E-01
REACH    1        0   300  0.2495E+02  0.1943E-01  0.1935E-01
REACH    2        0   300  0.5464E+02  0.2767E-01  0.2496E-01
REACH    3        0   300  0.1361E+02  0.3479E-02  0.2865E-02
REACH    4        0   300  0.9257E+02  0.3437E-01  0.2553E-01
REACH    1        0   301  0.2495E+02  0.1917E-01  0.1906E-01
REACH    2        0   301  0.5464E+02  0.2714E-01  0.2465E-01
REACH    3        0   301  0.1361E+02  0.3083E-02  0.2333E-02
REACH    4        0   301  0.9257E+02  0.3330E-01  0.3050E-01
REACH    1        0   302  0.2495E+02  0.1893E-01  0.1884E-01
REACH    2        0   302  0.5464E+02  0.2668E-01  0.2403E-01
REACH    3        0   302  0.1361E+02  0.2976E-02  0.2191E-02
REACH    4        0   302  0.9257E+02  0.3232E-01  0.2671E-01
REACH    1        0   303  0.2495E+02  0.1870E-01  0.1859E-01
REACH    2        0   303  0.5464E+02  0.2621E-01  0.2335E-01
REACH    3        0   303  0.1361E+02  0.2874E-02  0.2080E-02
REACH    4        0   303  0.9257E+02  0.3131E-01  0.2635E-01
REACH    1        0   304  0.2495E+02  0.1846E-01  0.1839E-01
REACH    2        0   304  0.5464E+02  0.2579E-01  0.2372E-01
REACH    3        0   304  0.1361E+02  0.2776E-02  0.2195E-02
REACH    4        0   304  0.9257E+02  0.3160E-01  0.2807E-01
REACH    1        0   305  0.2495E+02  0.1822E-01  0.1816E-01
REACH    2        0   305  0.5464E+02  0.2536E-01  0.2364E-01
REACH    3        0   305  0.1361E+02  0.2682E-02  0.2213E-02
REACH    4        0   305  0.9257E+02  0.3134E-01  0.2840E-01
REACH    1        0   306  0.2495E+02  0.1797E-01  0.1793E-01
REACH    2        0   306  0.5464E+02  0.2492E-01  0.2358E-01
REACH    3        0   306  0.1361E+02  0.2592E-02  0.2223E-02
REACH    4        0   306  0.9257E+02  0.3110E-01  0.2883E-01
REACH    1        0   307  0.2495E+02  0.1772E-01  0.1765E-01
REACH    2        0   307  0.5464E+02  0.2445E-01  0.2247E-01
REACH    3        0   307  0.1361E+02  0.2506E-02  0.1998E-02
REACH    4        0   307  0.9257E+02  0.2959E-01  0.2610E-01
REACH    1        0   308  0.2495E+02  0.1746E-01  0.1739E-01
REACH    2        0   308  0.5464E+02  0.2400E-01  0.2202E-01
REACH    3        0   308  0.1361E+02  0.2424E-02  0.1889E-02
REACH    4        0   308  0.9257E+02  0.2887E-01  0.2546E-01
REACH    1        0   309  0.2495E+02  0.9899E-01  0.9895E-01
REACH    2        0   309  0.5464E+02  0.1871E+00  0.1876E+00
REACH    3        0   309  0.1361E+02  0.2925E-01  0.2934E-01
REACH    4        0   309  0.9257E+02  0.2342E+00  0.2383E+00
REACH    1        0   310  0.2495E+02  0.1182E+00  0.1181E+00
REACH    2        0   310  0.5464E+02  0.1888E+00  0.1870E+00
REACH    3        0   310  0.1361E+02  0.1122E-01  0.1071E-01
REACH    4        0   310  0.9257E+02  0.2098E+00  0.2065E+00
REACH    1        0   311  0.2495E+02  0.1778E-01  0.1769E-01
REACH    2        0   311  0.5464E+02  0.2438E-01  0.1995E-01
REACH    3        0   311  0.1361E+02  0.2429E-02  0.1330E-02
REACH    4        0   311  0.9257E+02  0.2626E-01  0.1489E-01
REACH    1        0   312  0.2495E+02  0.1694E-01  0.1688E-01
REACH    2        0   312  0.5464E+02  0.2331E-01  0.2205E-01
REACH    3        0   312  0.1361E+02  0.2335E-02  0.1904E-02
REACH    4        0   312  0.9257E+02  0.2877E-01  0.2724E-01
REACH    1        0   313  0.2495E+02  0.1644E-01  0.1634E-01
REACH    2        0   313  0.5464E+02  0.2259E-01  0.1983E-01
REACH    3        0   313  0.1361E+02  0.2258E-02  0.1609E-02
REACH    4        0   313  0.9257E+02  0.2609E-01  0.2122E-01
REACH    1        0   314  0.2495E+02  0.1604E-01  0.1600E-01
REACH    2        0   314  0.5464E+02  0.2207E-01  0.2087E-01
REACH    3        0   314  0.1361E+02  0.4339E-02  0.4475E-02
REACH    4        0   314  0.9257E+02  0.3064E-01  0.2960E-01
REACH    1        0   315  0.2495E+02  0.1570E-01  0.1565E-01
REACH    2        0   315  0.5464E+02  0.2155E-01  0.2010E-01
REACH    3        0   315  0.1361E+02  0.2147E-02  0.1218E-02
REACH    4        0   315  0.9257E+02  0.2572E-01  0.2205E-01
REACH    1        0   316  0.2495E+02  0.1539E-01  0.1532E-01
REACH    2        0   316  0.5464E+02  0.2105E-01  0.1931E-01
REACH    3        0   316  0.1361E+02  0.2074E-02  0.1698E-02
REACH    4        0   316  0.9257E+02  0.2526E-01  0.2265E-01
REACH    1        0   317  0.2495E+02  0.1508E-01  0.1504E-01
REACH    2        0   317  0.5464E+02  0.2061E-01  0.1926E-01
REACH    3        0   317  0.1361E+02  0.2008E-02  0.1625E-02
REACH    4        0   317  0.9257E+02  0.2500E-01  0.2262E-01
REACH    1        0   318  0.2495E+02  0.1479E-01  0.1474E-01
REACH    2        0   318  0.5464E+02  0.2016E-01  0.1881E-01
REACH    3        0   318  0.1361E+02  0.1945E-02  0.1595E-02
REACH    4        0   318  0.9257E+02  0.2438E-01  0.2211E-01
REACH    1        0   319  0.2495E+02  0.2009E-01  0.2006E-01
REACH    2        0   319  0.5464E+02  0.2533E-01  0.2682E-01
REACH    3        0   319  0.1361E+02  0.1884E-02  0.1663E-02
REACH    4        0   319  0.9257E+02  0.3234E-01  0.3325E-01
REACH    1        0   320  0.2495E+02  0.1093E+01  0.1093E+01
REACH    2        0   320  0.5464E+02  0.1859E+01  0.1858E+01
REACH    3        0   320  0.1361E+02  0.1439E+00  0.1440E+00
REACH    4        0   320  0.9257E+02  0.2076E+01  0.2078E+01
REACH    1        0   321  0.2495E+02  0.2703E-01  0.2694E-01
REACH    2        0   321  0.5464E+02  0.3935E-01  0.3717E-01
REACH    3        0   321  0.1361E+02  0.2146E-01  0.2085E-01
REACH    4        0   321  0.9257E+02  0.7067E-01  0.6684E-01
REACH    1        0   322  0.2495E+02  0.2101E-01  0.2096E-01
REACH    2        0   322  0.5464E+02  0.2801E-01  0.2602E-01
REACH    3        0   322  0.1361E+02  0.2593E-02  0.1737E-02
REACH    4        0   322  0.9257E+02  0.3287E-01  0.2373E-01
REACH    1        0   323  0.2495E+02  0.1827E-01  0.1818E-01
REACH    2        0   323  0.5464E+02  0.2499E-01  0.2189E-01
REACH    3        0   323  0.1361E+02  0.2470E-02  0.1990E-02
REACH    4        0   323  0.9257E+02  0.2880E-01  0.2592E-01
REACH    1        0   324  0.2495E+02  0.1680E-01  0.1674E-01
REACH    2        0   324  0.5464E+02  0.2332E-01  0.2137E-01
REACH    3        0   324  0.1361E+02  0.2382E-02  0.1857E-02
REACH    4        0   324  0.9257E+02  0.2797E-01  0.2449E-01
REACH    1        0   325  0.2495E+02  0.1604E-01  0.1597E-01
REACH    2        0   325  0.5464E+02  0.2234E-01  0.2028E-01
REACH    3        0   325  0.1361E+02  0.2297E-02  0.1797E-02
REACH    4        0   325  0.9257E+02  0.2665E-01  0.2334E-01
REACH    1        0   326  0.2495E+02  0.1562E-01  0.1555E-01
REACH    2        0   326  0.5464E+02  0.2171E-01  0.1960E-01
REACH    3        0   326  0.1361E+02  0.2217E-02  0.1662E-02
REACH    4        0   326  0.9257E+02  0.2568E-01  0.2209E-01
REACH    1        0   327  0.2495E+02  0.1537E-01  0.1532E-01
REACH    2        0   327  0.5464E+02  0.2128E-01  0.1976E-01
REACH    3        0   327  0.1361E+02  0.2140E-02  0.1752E-02
REACH    4        0   327  0.9257E+02  0.2578E-01  0.2342E-01
REACH    1        0   328  0.2495E+02  0.1519E-01  0.1516E-01
REACH    2        0   328  0.5464E+02  0.2093E-01  0.1989E-01
REACH    3        0   328  0.1361E+02  0.2066E-02  0.1790E-02
REACH    4        0   328  0.9257E+02  0.2579E-01  0.2412E-01
REACH    1        0   329  0.2495E+02  0.1505E-01  0.1499E-01
REACH    2        0   329  0.5464E+02  0.2058E-01  0.1910E-01
REACH    3        0   329  0.1361E+02  0.1996E-02  0.1617E-02
REACH    4        0   329  0.9257E+02  0.2469E-01  0.2212E-01
REACH    1        0   330  0.2495E+02  0.1588E+00  0.1587E+00
REACH    2        0   330  0.5464E+02  0.2910E+00  0.2919E+00
REACH    3        0   330  0.1361E+02  0.4422E-01  0.4425E-01
REACH    4        0   330  0.9257E+02  0.3565E+00  0.3605E+00
REACH    1        0   331  0.2495E+02  0.1576E-01  0.1570E-01
REACH    2        0   331  0.5464E+02  0.2146E-01  0.1692E-01
REACH    3        0   331  0.1361E+02  0.2126E-02  0.1201E-02
REACH    4        0   331  0.9257E+02  0.2218E-01  0.1827E-01
REACH    1        0   332  0.2495E+02  0.1508E-01  0.1503E-01
REACH    2        0   332  0.5464E+02  0.2047E-01  0.1992E-01
REACH    3        0   332  0.1361E+02  0.1988E-02  0.1681E-02
REACH    4        0   332  0.9257E+02  0.2550E-01  0.1700E-01
REACH    1        0   333  0.2495E+02  0.1475E-01  0.1469E-01
REACH    2        0   333  0.5464E+02  0.1995E-01  0.1818E-01
REACH    3        0   333  0.1361E+02  0.1920E-02  0.1528E-02
REACH    4        0   333  0.9257E+02  0.2348E-01  0.2171E-01
REACH    1        0   334  0.2495E+02  0.1450E-01  0.1443E-01
REACH    2        0   334  0.5464E+02  0.1952E-01  0.1774E-01
REACH    3        0   334  0.1361E+02  0.1855E-02  0.1372E-02
REACH    4        0   334  0.9257E+02  0.2275E-01  0.1950E-01
REACH    1        0   335  0.2495E+02  0.4469E+00  0.4469E+00
REACH    2        0   335  0.5464E+02  0.8722E+00  0.8746E+00
REACH    3        0   335  0.1361E+02  0.1330E+00  0.1334E+00
REACH    4        0   335  0.9257E+02  0.1068E+01  0.1074E+01
REACH    1        0   336  0.2495E+02  0.4800E+00  0.4800E+00
REACH    2        0   336  0.5464E+02  0.9061E+00  0.9051E+00
REACH    3        0   336  0.1361E+02  0.1081E+00  0.1079E+00
REACH    4        0   336  0.9257E+02  0.1077E+01  0.1075E+01
REACH    1        0   337  0.2495E+02  0.3247E-01  0.3243E-01
REACH    2        0   337  0.5464E+02  0.4155E-01  0.4049E-01
REACH    3        0   337  0.1361E+02  0.3926E-02  0.3634E-02
REACH    4        0   337  0.9257E+02  0.5063E-01  0.4817E-01
REACH    1        0   338  0.2495E+02  0.2566E-01  0.2562E-01
REACH    2        0   338  0.5464E+02  0.3445E-01  0.3361E-01
REACH    3        0   338  0.1361E+02  0.3982E-02  0.3750E-02
REACH    4        0   338  0.9257E+02  0.4355E-01  0.3923E-01
REACH    1        0   339  0.2495E+02  0.2195E-01  0.2188E-01
REACH    2        0   339  0.5464E+02  0.3087E-01  0.2921E-01
REACH    3        0   339  0.1361E+02  0.4217E-02  0.3757E-02
REACH    4        0   339  0.9257E+02  0.3891E-01  0.3543E-01
REACH    1        0   340  0.2495E+02  0.1997E-01  0.1991E-01
REACH    2        0   340  0.5464E+02  0.2906E-01  0.2718E-01
REACH    3        0   340  0.1361E+02  0.4446E-02  0.3985E-02
REACH    4        0   340  0.9257E+02  0.3686E-01  0.3341E-01
REACH    1        0   341  0.2495E+02  0.1912E-01  0.1908E-01
REACH    2        0   341  0.5464E+02  0.2838E-01  0.2712E-01
REACH    3        0   341  0.1361E+02  0.4657E-02  0.4369E-02
REACH    4        0   341  0.9257E+02  0.3697E-01  0.3523E-01
REACH    1        0   342  0.2495E+02  0.1881E-01  0.1875E-01
REACH    2        0   342  0.5464E+02  0.2817E-01  0.2652E-01
REACH    3        0   342  0.1361E+02  0.4847E-02  0.4388E-02
REACH    4        0   342  0.9257E+02  0.3616E-01  0.3306E-01
REACH    1        0   343  0.2495E+02  0.1874E-01  0.1870E-01
REACH    2        0   343  0.5464E+02  0.2822E-01  0.2707E-01
REACH    3        0   343  0.1361E+02  0.5016E-02  0.4696E-02
REACH    4        0   343  0.9257E+02  0.3683E-01  0.3498E-01
REACH    1        0   344  0.2495E+02  0.1878E-01  0.1875E-01
REACH    2        0   344  0.5464E+02  0.2835E-01  0.2770E-01
REACH    3        0   344  0.1361E+02  0.5166E-02  0.4969E-02
REACH    4        0   344  0.9257E+02  0.3753E-01  0.3638E-01
REACH    1        0   345  0.2495E+02  0.1885E-01  0.1882E-01
REACH    2        0   345  0.5464E+02  0.2848E-01  0.2764E-01
REACH    3        0   345  0.1361E+02  0.5297E-02  0.5052E-02
REACH    4        0   345  0.9257E+02  0.3737E-01  0.3575E-01
REACH    1        0   346  0.2495E+02  0.2948E+00  0.2948E+00
REACH    2        0   346  0.5464E+02  0.6448E+00  0.6445E+00
REACH    3        0   346  0.1361E+02  0.1342E+00  0.1340E+00
REACH    4        0   346  0.9257E+02  0.8430E+00  0.8463E+00
REACH    1        0   347  0.2495E+02  0.2254E+01  0.2254E+01
REACH    2        0   347  0.5464E+02  0.4035E+01  0.4032E+01
REACH    3        0   347  0.1361E+02  0.3832E+00  0.3825E+00
REACH    4        0   347  0.9257E+02  0.4758E+01  0.4754E+01
REACH    1        0   348  0.2495E+02  0.5327E-01  0.5322E-01
REACH    2        0   348  0.5464E+02  0.7388E-01  0.7269E-01
REACH    3        0   348  0.1361E+02  0.1162E-01  0.1129E-01
REACH    4        0   348  0.9257E+02  0.9723E-01  0.9512E-01
REACH    1        0   349  0.2495E+02  0.4034E-01  0.4030E-01
REACH    2        0   349  0.5464E+02  0.6150E-01  0.6068E-01
REACH    3        0   349  0.1361E+02  0.1307E-01  0.1284E-01
REACH    4        0   349  0.9257E+02  0.8879E-01  0.8734E-01
REACH    1        0   350  0.2495E+02  0.3421E-01  0.3418E-01
REACH    2        0   350  0.5464E+02  0.5718E-01  0.5647E-01
REACH    3        0   350  0.1361E+02  0.1500E-01  0.1481E-01
REACH    4        0   350  0.9257E+02  0.8888E-01  0.8763E-01
REACH    1        0   351  0.2495E+02  0.3105E-01  0.3102E-01
REACH    2        0   351  0.5464E+02  0.5569E-01  0.5491E-01
REACH    3        0   351  0.1361E+02  0.1686E-01  0.1664E-01
REACH    4        0   351  0.9257E+02  0.9145E-01  0.9007E-01
REACH    1        0   352  0.2495E+02  0.2969E-01  0.2967E-01
REACH    2        0   352  0.5464E+02  0.5586E-01  0.5545E-01
REACH    3        0   352  0.1361E+02  0.1859E-01  0.1843E-01
REACH    4        0   352  0.9257E+02  0.9593E-01  0.9489E-01
REACH    1        0   353  0.2495E+02  0.2934E-01  0.2932E-01
REACH    2        0   353  0.5464E+02  0.5689E-01  0.5624E-01
REACH    3        0   353  0.1361E+02  0.2018E-01  0.2000E-01
REACH    4        0   353  0.9257E+02  0.1003E+00  0.9914E-01
REACH    1        0   354  0.2495E+02  0.2946E-01  0.2942E-01
REACH    2        0   354  0.5464E+02  0.5822E-01  0.5717E-01
REACH    3        0   354  0.1361E+02  0.2163E-01  0.2134E-01
REACH    4        0   354  0.9257E+02  0.1044E+00  0.1025E+00
REACH    1        0   355  0.2495E+02  0.2976E-01  0.2973E-01
REACH    2        0   355  0.5464E+02  0.5962E-01  0.5870E-01
REACH    3        0   355  0.1361E+02  0.2294E-01  0.2268E-01
REACH    4        0   355  0.9257E+02  0.1089E+00  0.1072E+00
REACH    1        0   356  0.2495E+02  0.8811E+00  0.8810E+00
REACH    2        0   356  0.5464E+02  0.1654E+01  0.1652E+01
REACH    3        0   356  0.1361E+02  0.1223E+00  0.1219E+00
REACH    4        0   356  0.9257E+02  0.1868E+01  0.1865E+01
REACH    1        0   357  0.2495E+02  0.4859E-01  0.4852E-01
REACH    2        0   357  0.5464E+02  0.8512E-01  0.8343E-01
REACH    3        0   357  0.1361E+02  0.2670E-01  0.2623E-01
REACH    4        0   357  0.9257E+02  0.1434E+00  0.1404E+00
REACH    1        0   358  0.2495E+02  0.9593E-01  0.9590E-01
REACH    2        0   358  0.5464E+02  0.1825E+00  0.1819E+00
REACH    3        0   358  0.1361E+02  0.4123E-01  0.4105E-01
REACH    4        0   358  0.9257E+02  0.2663E+00  0.2652E+00
REACH    1        0   359  0.2495E+02  0.1504E+00  0.1504E+00
REACH    2        0   359  0.5464E+02  0.2620E+00  0.2609E+00
REACH    3        0   359  0.1361E+02  0.3844E-01  0.3815E-01
REACH    4        0   359  0.9257E+02  0.3424E+00  0.3406E+00
REACH    1        0   360  0.2495E+02  0.1554E+00  0.1553E+00
REACH    2        0   360  0.5464E+02  0.2771E+00  0.2753E+00
REACH    3        0   360  0.1361E+02  0.4258E-01  0.4207E-01
REACH    4        0   360  0.9257E+02  0.3676E+00  0.3645E+00
REACH    1        0   361  0.2495E+02  0.6082E-01  0.6077E-01
REACH    2        0   361  0.5464E+02  0.1060E+00  0.1047E+00
REACH    3        0   361  0.1361E+02  0.3361E-01  0.3326E-01
REACH    4        0   361  0.9257E+02  0.1849E+00  0.1827E+00
REACH    1        0   362  0.2495E+02  0.6076E-01  0.6074E-01
REACH    2        0   362  0.5464E+02  0.1075E+00  0.1069E+00
REACH    3        0   362  0.1361E+02  0.3512E-01  0.3494E-01
REACH    4        0   362  0.9257E+02  0.1919E+00  0.1907E+00
REACH    1        0   363  0.2495E+02  0.6247E-01  0.6243E-01
REACH    2        0   363  0.5464E+02  0.1107E+00  0.1097E+00
REACH    3        0   363  0.1361E+02  0.3651E-01  0.3622E-01
REACH    4        0   363  0.9257E+02  0.1987E+00  0.1969E+00
REACH    1        0   364  0.2495E+02  0.9796E-01  0.9788E-01
REACH    2        0   364  0.5464E+02  0.1673E+00  0.1654E+00
REACH    3        0   364  0.1361E+02  0.3991E-01  0.3937E-01
REACH    4        0   364  0.9257E+02  0.2613E+00  0.2579E+00
REACH    1        0   365  0.2495E+02  0.6844E-01  0.6833E-01
REACH    2        0   365  0.5464E+02  0.1192E+00  0.1165E+00
REACH    3        0   365  0.1361E+02  0.3886E-01  0.3811E-01
REACH    4        0   365  0.9257E+02  0.2124E+00  0.2076E+00
