1
    SWAT Nov 14 2012    VER 2012/Rev 582                                                                 0/ 0/   0      0: 0: 0

    General Input/Output section (file.cio):                                        
    2/7/2013 12:00:00 AM ARCGIS-SWAT interface AV                                   
                                                                                    
         Number of years in run:    6
         Area of watershed:       92.569 km2
1
    SWAT Nov 14 2012    VER 2012/Rev 582                                            

    General Input/Output section (file.cio):                                        
    2/7/2013 12:00:00 AM ARCGIS-SWAT interface AV                                   
                                                                                    
Annual Summary for Watershed in year    1 of simulation

UNIT                                    PERCO    TILE                           WATER     SED     NO3     NO3     NO3     NO3        N       P       P
TIME     PREC    SURQ    LATQ     GWQ    LATE       Q     SW       ET     PET   YIELD   YIELD    SURQ    LATQ    PERC    CROP  ORGANIC SOLUBLE ORGANIC TILENO3
         (mm)    (mm)    (mm)    (mm)    (mm)    (mm)    (mm)    (mm)    (mm)    (mm)    (mm)   ------------------(kg nutrient/ha)-------------------- (kg/ha)
1
    SWAT Nov 14 2012    VER 2012/Rev 582                                            

    General Input/Output section (file.cio):                                        
    2/7/2013 12:00:00 AM ARCGIS-SWAT interface AV                                   
                                                                                    
Annual Summary for Watershed in year    2 of simulation

UNIT                                    PERCO    TILE                           WATER     SED     NO3     NO3     NO3     NO3        N       P       P
TIME     PREC    SURQ    LATQ     GWQ    LATE       Q     SW       ET     PET   YIELD   YIELD    SURQ    LATQ    PERC    CROP  ORGANIC SOLUBLE ORGANIC TILENO3
         (mm)    (mm)    (mm)    (mm)    (mm)    (mm)    (mm)    (mm)    (mm)    (mm)    (mm)   ------------------(kg nutrient/ha)-------------------- (kg/ha)
1
    SWAT Nov 14 2012    VER 2012/Rev 582                                            

    General Input/Output section (file.cio):                                        
    2/7/2013 12:00:00 AM ARCGIS-SWAT interface AV                                   
                                                                                    
Annual Summary for Watershed in year    3 of simulation

UNIT                                    PERCO    TILE                           WATER     SED     NO3     NO3     NO3     NO3        N       P       P
TIME     PREC    SURQ    LATQ     GWQ    LATE       Q     SW       ET     PET   YIELD   YIELD    SURQ    LATQ    PERC    CROP  ORGANIC SOLUBLE ORGANIC TILENO3
         (mm)    (mm)    (mm)    (mm)    (mm)    (mm)    (mm)    (mm)    (mm)    (mm)    (mm)   ------------------(kg nutrient/ha)-------------------- (kg/ha)
    1    0.00    0.00    0.02    0.25    0.17    0.00  203.18    0.58    1.64    0.27    0.00    0.00    0.00    0.01    0.00     0.00    0.00    0.00    0.00
    2    0.00    0.00    0.02    0.26    0.09    0.00  202.53    0.55    1.55    0.28    0.00    0.00    0.00    0.01    0.00     0.00    0.00    0.00    0.00
    3    0.00    0.00    0.02    0.27    0.04    0.00  201.90    0.59    1.74    0.28    0.00    0.00    0.00    0.00    0.00     0.00    0.00    0.00    0.00
    4    0.00    0.00    0.02    0.27    0.01    0.00  201.12    0.77    2.40    0.29    0.00    0.00    0.00    0.00    0.00     0.00    0.00    0.00    0.00
    5    0.00    0.00    0.02    0.28    0.00    0.00  200.27    0.85    2.86    0.29    0.00    0.00    0.00    0.00    0.00     0.00    0.00    0.00    0.00
    6    0.00    0.00    0.02    0.28    0.00    0.00  199.53    0.74    2.66    0.30    0.00    0.00    0.00    0.00    0.00     0.00    0.00    0.00    0.00
    7    0.00    0.00    0.02    0.28    0.00    0.00  199.02    0.51    1.92    0.30    0.00    0.00    0.00    0.00    0.00     0.00    0.00    0.00    0.00
    8    0.03    0.00    0.01    0.29    0.00    0.00  198.64    0.40    1.51    0.30    0.00    0.00    0.00    0.00    0.00     0.00    0.00    0.00    0.00
    9    0.00    0.00    0.01    0.29    0.00    0.00  198.10    0.54    2.13    0.30    0.00    0.00    0.00    0.00    0.00     0.00    0.00    0.00    0.00
   10    0.00    0.00    0.01    0.29    0.00    0.00  197.68    0.42    1.75    0.31    0.00    0.00    0.00    0.00    0.00     0.00    0.00    0.00    0.00
   11    0.00    0.00    0.01    0.29    0.00    0.00  197.24    0.44    1.85    0.31    0.00    0.00    0.00    0.00    0.00     0.00    0.00    0.00    0.00
   12    0.00    0.00    0.01    0.29    0.00    0.00  196.84    0.40    1.75    0.31    0.00    0.00    0.00    0.00    0.00     0.00    0.00    0.00    0.00
   13    0.00    0.00    0.01    0.29    0.00    0.00  196.19    0.65    2.90    0.31    0.00    0.00    0.00    0.00    0.00     0.00    0.00    0.00    0.00
   14   24.69    2.23    0.03    0.30    1.96    0.00  213.81    2.68    3.05    2.55    0.01    0.04    0.00    0.33    0.00     0.03    0.00    0.00    0.00
   15   11.28    0.66    0.03    0.30    2.60    0.00  220.01    1.69    1.89    0.99    0.00    0.01    0.00    0.48    0.00     0.01    0.00    0.00    0.00
   16    0.00    0.00    0.03    0.31    1.57    0.00  216.75    1.68    2.89    0.33    0.00    0.00    0.00    0.29    0.00     0.00    0.00    0.00    0.00
   17    0.21    0.00    0.02    0.31    0.91    0.00  214.49    1.55    2.97    0.34    0.00    0.00    0.00    0.17    0.00     0.00    0.00    0.00    0.00
   18    0.00    0.00    0.02    0.32    0.51    0.00  213.15    0.82    1.84    0.34    0.00    0.00    0.00    0.09    0.00     0.00    0.00    0.00    0.00
   19    0.00    0.00    0.02    0.33    0.29    0.00  212.25    0.61    1.48    0.35    0.00    0.00    0.00    0.05    0.00     0.00    0.00    0.00    0.00
   20    1.44    0.00    0.02    0.33    0.16    0.00  212.84    0.68    0.90    0.36    0.00    0.00    0.00    0.03    0.00     0.00    0.00    0.00    0.00
   21    2.73    0.04    0.02    0.34    0.09    0.00  214.78    0.66    0.77    0.40    0.00    0.00    0.00    0.02    0.00     0.00    0.00    0.00    0.00
   22    0.00    0.00    0.02    0.34    0.04    0.00  214.16    0.58    0.87    0.36    0.00    0.00    0.00    0.01    0.00     0.00    0.00    0.00    0.00
   23    2.11    0.00    0.02    0.34    0.02    0.00  213.54    0.60    1.87    0.36    0.00    0.00    0.00    0.00    0.00     0.00    0.00    0.00    0.00
   24    0.00    0.03    0.02    0.35    0.00    0.00  213.71    1.89    2.24    0.40    0.00    0.00    0.00    0.00    0.00     0.00    0.00    0.00    0.00
   25    0.00    0.00    0.02    0.35    0.00    0.00  212.26    1.45    2.12    0.37    0.00    0.00    0.00    0.00    0.00     0.00    0.00    0.00    0.00
   26    0.00    0.00    0.02    0.35    0.00    0.00  211.00    1.26    2.50    0.37    0.00    0.00    0.00    0.00    0.00     0.00    0.00    0.00    0.00
   27    0.00    0.00    0.02    0.35    0.00    0.00  209.51    1.49    3.71    0.37    0.00    0.00    0.00    0.00    0.00     0.00    0.00    0.00    0.00
   28    0.00    0.00    0.01    0.35    0.00    0.00  208.54    0.97    2.81    0.36    0.00    0.00    0.00    0.00    0.00     0.00    0.00    0.00    0.00
   29    0.00    0.00    0.01    0.35    0.00    0.00  208.09    0.45    1.45    0.36    0.00    0.00    0.00    0.00    0.00     0.00    0.00    0.00    0.00
   30   13.26    0.84    0.02    0.35    0.58    0.00  219.31    0.53    0.59    1.20    0.00    0.01    0.00    0.13    0.00     0.01    0.00    0.00    0.00
   31    0.00    0.00    0.02    0.35    0.36    0.00  217.46    1.50    1.90    0.37    0.00    0.00    0.00    0.08    0.00     0.00    0.00    0.00    0.00
    1   55.74    3.80    0.56    9.65    9.41    0.00  217.46   28.53   62.48   14.02    0.02    0.06    0.01    1.71    0.00     0.05    0.00    0.01    0.00
   32    0.00    0.00    0.02    0.35    0.19    0.00  216.16    1.10    1.89    0.37    0.00    0.00    0.00    0.04    0.00     0.00    0.00    0.00    0.00
   33    0.00    0.00    0.02    0.35    0.10    0.00  215.11    0.95    1.84    0.36    0.00    0.00    0.00    0.02    0.00     0.00    0.00    0.00    0.00
   34    1.06    0.00    0.02    0.35    0.04    0.00  215.26    0.87    1.15    0.36    0.00    0.00    0.00    0.01    0.00     0.00    0.00    0.00    0.00
   35    8.06    0.40    0.02    0.35    0.69    0.00  220.08    2.08    2.28    0.76    0.00    0.01    0.00    0.14    0.00     0.01    0.00    0.00    0.00
   36    0.00    0.00    0.02    0.34    0.42    0.00  217.73    1.92    3.46    0.36    0.00    0.00    0.00    0.08    0.00     0.00    0.00    0.00    0.00
   37    0.00    0.00    0.02    0.34    0.22    0.00  215.85    1.66    3.56    0.36    0.00    0.00    0.00    0.04    0.00     0.00    0.00    0.00    0.00
   38    0.00    0.00    0.02    0.34    0.10    0.00  214.70    1.05    2.65    0.36    0.00    0.00    0.00    0.02    0.00     0.00    0.00    0.00    0.00
   39    0.00    0.00    0.01    0.34    0.03    0.00  213.75    0.92    2.60    0.36    0.00    0.00    0.00    0.01    0.00     0.00    0.00    0.00    0.00
   40    0.01    0.00    0.01    0.34    0.00    0.00  213.03    0.73    2.21    0.35    0.00    0.00    0.00    0.00    0.00     0.00    0.00    0.00    0.00
   41    0.39    0.00    0.01    0.34    0.00    0.00  212.07    1.34    3.52    0.35    0.00    0.00    0.00    0.00    0.00     0.00    0.00    0.00    0.00
   42    0.00    0.00    0.01    0.34    0.00    0.00  210.68    1.39    4.39    0.35    0.00    0.00    0.00    0.00    0.00     0.00    0.00    0.00    0.00
   43    0.00    0.00    0.01    0.33    0.00    0.00  209.80    0.88    3.21    0.35    0.00    0.00    0.00    0.00    0.00     0.00    0.00    0.00    0.00
   44    0.00    0.00    0.01    0.33    0.00    0.00  209.23    0.57    2.22    0.34    0.00    0.00    0.00    0.00    0.00     0.00    0.00    0.00    0.00
   45    1.13    0.00    0.01    0.33    0.00    0.00  209.75    0.62    1.31    0.34    0.00    0.00    0.00    0.00    0.00     0.00    0.00    0.00    0.00
   46    1.60    0.01    0.01    0.32    0.00    0.00  210.34    0.99    1.39    0.34    0.00    0.00    0.00    0.00    0.00     0.00    0.00    0.00    0.00
   47    0.00    0.00    0.01    0.32    0.00    0.00  209.03    1.31    3.12    0.33    0.00    0.00    0.00    0.00    0.00     0.00    0.00    0.00    0.00
   48    2.38    0.04    0.01    0.31    0.00    0.00  209.04    2.33    4.17    0.36    0.00    0.00    0.00    0.00    0.00     0.00    0.00    0.00    0.00
   49    0.00    0.00    0.01    0.31    0.00    0.00  207.82    1.22    4.03    0.32    0.00    0.00    0.00    0.00    0.00     0.00    0.00    0.00    0.00
   50    0.00    0.00    0.01    0.31    0.00    0.00  207.28    0.55    2.13    0.32    0.00    0.00    0.00    0.00    0.00     0.00    0.00    0.00    0.00
   51    0.00    0.00    0.01    0.30    0.00    0.00  206.66    0.62    2.73    0.31    0.00    0.00    0.00    0.00    0.00     0.00    0.00    0.00    0.00
   52    2.74    0.04    0.01    0.30    0.00    0.00  208.60    0.75    1.08    0.35    0.00    0.00    0.00    0.00    0.00     0.00    0.00    0.00    0.00
   53    1.37    0.00    0.01    0.29    0.00    0.00  208.70    1.27    1.79    0.30    0.00    0.00    0.00    0.00    0.00     0.00    0.00    0.00    0.00
   54    0.00    0.00    0.01    0.29    0.00    0.00  207.21    1.49    4.10    0.30    0.00    0.00    0.00    0.00    0.00     0.00    0.00    0.00    0.00
   55   11.27    0.63    0.01    0.28    0.00    0.00  216.20    1.59    1.79    0.93    0.01    0.01    0.00    0.00    0.00     0.02    0.00    0.00    0.00
   56    7.92    0.39    0.02    0.28    0.59    0.00  221.74    1.33    1.43    0.68    0.00    0.00    0.00    0.14    0.00     0.01    0.00    0.00    0.00
   57    0.00    0.00    0.01    0.28    0.36    0.00  219.96    1.42    2.18    0.29    0.00    0.00    0.00    0.09    0.00     0.00    0.00    0.00    0.00
   58    0.00    0.00    0.01    0.27    0.20    0.00  218.52    1.23    2.27    0.29    0.00    0.00    0.00    0.05    0.00     0.00    0.00    0.00    0.00
   59   18.77    1.51    0.03    0.27    2.30    0.00  232.45    0.83    0.90    1.81    0.02    0.01    0.00    0.51    0.00     0.04    0.00    0.00    0.00
    2   56.71    3.01    0.39    8.90    5.26    0.00  232.45   33.01   69.40   12.29    0.03    0.02    0.01    1.16    0.00     0.07    0.00    0.01    0.00
   60    1.74    0.01    0.02    0.27    1.61    0.00  229.84    2.70    2.93    0.30    0.00    0.00    0.00    0.35    0.00     0.00    0.00    0.00    0.00
   61    0.00    0.00    0.02    0.28    0.96    0.00  226.87    2.01    3.81    0.30    0.00    0.00    0.00    0.21    0.00     0.00    0.00    0.00    0.00
   62    0.00    0.00    0.02    0.28    0.53    0.00  224.64    1.70    3.97    0.30    0.00    0.00    0.00    0.11    0.00     0.00    0.00    0.00    0.00
   63    0.00    0.00    0.02    0.28    0.27    0.00  223.17    1.19    3.21    0.30    0.00    0.00    0.00    0.06    0.00     0.00    0.00    0.00    0.00
   64    0.00    0.00    0.02    0.28    0.13    0.00  221.41    1.62    4.80    0.30    0.00    0.00    0.00    0.03    0.00     0.00    0.00    0.00    0.00
   65    0.31    0.00    0.02    0.28    0.03    0.00  220.29    1.39    3.82    0.30    0.00    0.00    0.00    0.01    0.00     0.00    0.00    0.00    0.00
   66    0.00    0.00    0.02    0.29    0.00    0.00  218.84    1.45    4.96    0.30    0.00    0.00    0.00    0.00    0.00     0.00    0.00    0.00    0.00
   67   13.89    0.91    0.02    0.29    0.44    0.00  227.52    3.76    4.79    1.22    0.02    0.01    0.00    0.09    0.00     0.03    0.00    0.00    0.00
   68   14.56    1.00    0.03    0.29    2.05    0.00  235.89    2.97    3.28    1.32    0.00    0.00    0.00    0.46    0.00     0.03    0.00    0.00    0.00
   69    0.00    0.00    0.03    0.29    1.23    0.00  232.93    1.72    3.28    0.32    0.00    0.00    0.00    0.27    0.00     0.00    0.00    0.00    0.00
   70    0.00    0.00    0.02    0.30    0.70    0.00  230.44    1.78    4.07    0.32    0.00    0.00    0.00    0.15    0.00     0.00    0.00    0.00    0.00
   71    0.60    0.00    0.02    0.30    0.37    0.00  228.57    2.10    4.46    0.33    0.00    0.00    0.00    0.08    0.00     0.00    0.00    0.00    0.00
   72    0.00    0.00    0.02    0.31    0.17    0.00  227.00    1.39    3.79    0.33    0.00    0.00    0.00    0.04    0.00     0.00    0.00    0.00    0.00
   73    9.07    0.47    0.02    0.31    0.19    0.00  233.04    2.33    2.50    0.80    0.00    0.01    0.00    0.05    0.00     0.01    0.00    0.00    0.00
   74    0.00    0.00    0.02    0.31    0.11    0.00  231.23    1.69    3.11    0.33    0.00    0.00    0.00    0.03    0.00     0.00    0.00    0.00    0.00
   75    0.00    0.00    0.02    0.32    0.04    0.00  229.76    1.43    3.03    0.34    0.00    0.00    0.00    0.01    0.00     0.00    0.00    0.00    0.00
   76   29.65    3.80    0.04    0.32    3.83    0.00  250.57    0.93    0.99    4.16    0.04    0.01    0.00    0.92    0.00     0.10    0.00    0.01    0.00
   77    1.61    0.01    0.04    0.33    2.45    0.00  248.21    1.47    1.56    0.38    0.00    0.00    0.00    0.56    0.00     0.00    0.00    0.00    0.00
   78    0.00    0.00    0.03    0.34    1.46    0.00  244.72    2.02    3.10    0.37    0.00    0.00    0.00    0.32    0.00     0.00    0.00    0.00    0.00
   79    0.00    0.00    0.03    0.35    0.83    0.00  241.72    2.15    4.15    0.38    0.00    0.00    0.00    0.18    0.00     0.00    0.00    0.00    0.00
   80    0.00    0.00    0.03    0.36    0.45    0.00  239.54    1.73    4.16    0.39    0.00    0.00    0.00    0.10    0.00     0.00    0.00    0.00    0.00
   81    0.00    0.00    0.03    0.37    0.22    0.00  237.66    1.66    4.64    0.40    0.00    0.00    0.00    0.05    0.00     0.00    0.00    0.00    0.00
   82    7.29    0.29    0.03    0.38    0.15    0.00  242.55    1.92    2.10    0.70    0.00    0.00    0.00    0.03    0.00     0.01    0.00    0.00    0.00
   83    5.19    0.14    0.03    0.39    0.82    0.00  243.94    2.78    3.01    0.56    0.00    0.00    0.00    0.18    0.00     0.00    0.00    0.00    0.00
   84    0.00    0.00    0.03    0.39    0.49    0.00  241.33    2.11    4.02    0.42    0.00    0.00    0.00    0.11    0.00     0.00    0.00    0.00    0.00
   85    0.00    0.00    0.03    0.40    0.25    0.00  239.75    1.33    3.12    0.42    0.00    0.00    0.00    0.05    0.00     0.00    0.00    0.00    0.00
   86    0.00    0.00    0.02    0.40    0.11    0.00  238.76    0.88    2.33    0.43    0.00    0.00    0.00    0.03    0.00     0.00    0.00    0.00    0.00
   87    4.89    0.17    0.02    0.41    0.05    0.00  241.33    2.09    2.28    0.60    0.00    0.00    0.00    0.01    0.00     0.01    0.00    0.00    0.00
   88   10.55    0.48    0.03    0.41    1.68    0.00  245.37    4.24    5.54    0.93    0.00    0.00    0.00    0.38    0.00     0.02    0.00    0.00    0.00
   89    0.00    0.00    0.03    0.42    0.97    0.00  241.46    2.93    6.20    0.45    0.00    0.00    0.00    0.21    0.00     0.00    0.00    0.00    0.00
   90    0.00    0.00    0.03    0.43    0.51    0.00  239.55    1.39    3.72    0.45    0.00    0.00    0.00    0.11    0.00     0.00    0.00    0.00    0.00
    3   99.34    7.29    0.77   10.39   23.12    0.00  239.55   60.88  110.73   18.44    0.08    0.04    0.02    5.18    0.00     0.21    0.00    0.03    0.00
   91    2.91    0.05    0.03    0.43    0.26    0.00  240.17    1.97    2.37    0.50    0.00    0.00    0.00    0.06    0.00     0.00    0.00    0.00    0.00
   92    2.05    0.02    0.02    0.44    0.13    0.00  239.53    2.53    3.37    0.48    0.00    0.00    0.00    0.03    0.00     0.00    0.00    0.00    0.00
   93   10.83    0.73    0.03    0.44    0.38    0.00  243.84    5.33    7.74    1.20    0.02    0.00    0.00    0.08    0.00     0.03    0.00    0.00    0.00
   94    0.00    0.00    0.03    0.44    0.16    0.00  240.63    3.05    7.10    0.47    0.00    0.00    0.00    0.04    0.00     0.00    0.00    0.00    0.00
   95    0.00    0.00    0.02    0.44    0.05    0.00  238.68    1.89    5.62    0.47    0.00    0.00    0.00    0.01    0.00     0.00    0.00    0.00    0.00
   96    0.00    0.00    0.02    0.45    0.02    0.00  236.64    2.02    6.88    0.47    0.00    0.00    0.00    0.00    0.00     0.00    0.00    0.00    0.00
   97    0.00    0.00    0.02    0.45    0.00    0.00  235.03    1.61    6.20    0.47    0.00    0.00    0.00    0.00    0.00     0.00    0.00    0.00    0.00
   98    0.80    0.00    0.02    0.45    0.00    0.00  234.58    1.24    3.27    0.47    0.00    0.00    0.00    0.00    0.00     0.00    0.00    0.00    0.00
   99   13.64    0.85    0.03    0.45    0.08    0.00  242.63    4.59    6.40    1.32    0.02    0.01    0.00    0.02    0.37     0.05    0.00    0.01    0.00
  100    0.00    0.00    0.02    0.44    0.01    0.00  239.77    2.84    4.94    0.47    0.00    0.00    0.00    0.00    0.48     0.00    0.00    0.00    0.00
  101    0.00    0.00    0.02    0.44    0.00    0.00  237.21    2.57    5.08    0.46    0.00    0.00    0.00    0.00    0.94     0.00    0.00    0.00    0.00
  102    0.00    0.00    0.02    0.44    0.00    0.00  235.07    2.14    5.66    0.46    0.00    0.00    0.00    0.00    1.44     0.00    0.00    0.00    0.00
  103   16.09    1.08    0.03    0.44    0.38    0.00  247.93    1.66    1.67    1.54    0.02    0.00    0.00    0.15    0.98     0.04    0.00    0.01    0.00
  104    4.15    0.12    0.03    0.44    0.64    0.00  248.27    3.01    3.05    0.58    0.00    0.00    0.00    0.18    0.07     0.00    0.00    0.00    0.00
  105    0.00    0.00    0.02    0.43    0.36    0.00  244.25    3.65    6.40    0.46    0.00    0.00    0.00    0.10    0.03     0.00    0.00    0.00    0.00
  106    0.00    0.00    0.02    0.43    0.10    0.00  241.01    3.13    7.12    0.46    0.00    0.00    0.00    0.04    0.04     0.00    0.00    0.00    0.00
  107    0.00    0.00    0.02    0.43    0.01    0.00  238.76    2.25    5.15    0.45    0.00    0.00    0.00    0.01    0.04     0.00    0.00    0.00    0.00
  108    0.00    0.00    0.02    0.43    0.00    0.00  236.58    2.18    4.97    0.45    0.00    0.00    0.00    0.00    0.04     0.00    0.00    0.00    0.00
  109    0.00    0.00    0.02    0.42    0.00    0.00  234.02    2.56    5.35    0.44    0.00    0.00    0.00    0.00    0.47     0.00    0.00    0.00    0.00
  110    0.00    0.00    0.02    0.42    0.00    0.00  231.68    2.35    6.19    0.44    0.00    0.00    0.00    0.00    2.03     0.00    0.00    0.00    0.00
  111    0.00    0.00    0.02    0.42    0.00    0.00  229.33    2.35    6.76    0.43    0.00    0.00    0.00    0.00    2.33     0.00    0.00    0.00    0.00
  112    0.25    0.00    0.02    0.41    0.00    0.00  228.20    1.37    3.99    0.43    0.00    0.00    0.00    0.00    1.34     0.00    0.00    0.00    0.00
  113    0.48    0.00    0.02    0.41    0.00    0.00  227.28    1.41    4.06    0.42    0.00    0.00    0.00    0.00    1.90     0.00    0.00    0.00    0.00
  114    0.00    0.00    0.02    0.40    0.00    0.00  225.94    1.34    4.91    0.42    0.00    0.00    0.00    0.00    1.42     0.00    0.00    0.00    0.00
  115    0.00    0.00    0.02    0.40    0.00    0.00  224.26    1.68    6.52    0.41    0.00    0.00    0.00    0.00    0.02     0.00    0.00    0.00    0.00
  116    0.00    0.00    0.01    0.39    0.00    0.00  222.79    1.47    5.29    0.41    0.00    0.00    0.00    0.00    0.04     0.00    0.00    0.00    0.00
  117    0.25    0.00    0.01    0.39    0.00    0.00  222.22    0.82    2.82    0.40    0.00    0.00    0.00    0.00    0.01     0.00    0.00    0.00    0.00
  118    0.00    0.00    0.01    0.38    0.00    0.00  220.75    1.48    5.09    0.39    0.00    0.00    0.00    0.00    0.03     0.00    0.00    0.00    0.00
  119    1.66    0.01    0.01    0.37    0.00    0.00  220.06    2.34    3.04    0.40    0.00    0.00    0.00    0.00    0.04     0.00    0.00    0.00    0.00
  120    0.36    0.00    0.01    0.37    0.00    0.00  218.69    1.73    3.85    0.38    0.00    0.00    0.00    0.00    0.47     0.00    0.00    0.00    0.00
    4   53.46    2.86    0.62   12.67    2.60    0.00  218.69   68.54  150.88   16.15    0.06    0.01    0.01    0.72   14.53     0.13    0.00    0.02    0.00
  121   11.40    0.69    0.02    0.36    0.00    0.00  226.51    2.85    5.05    1.07    0.01    0.00    0.00    0.00    1.05     0.02    0.00    0.00    0.00
  122    0.03    0.00    0.02    0.36    0.00    0.00  224.46    2.07    5.00    0.37    0.00    0.00    0.00    0.00    1.18     0.00    0.00    0.00    0.00
  123    0.00    0.00    0.01    0.35    0.00    0.00  222.48    1.98    5.66    0.36    0.00    0.00    0.00    0.00    0.03     0.00    0.00    0.00    0.00
  124    0.00    0.00    0.01    0.34    0.00    0.00  220.77    1.71    5.84    0.36    0.00    0.00    0.00    0.00    0.05     0.00    0.00    0.00    0.00
  125    0.00    0.00    0.01    0.34    0.00    0.00  219.27    1.50    5.17    0.35    0.00    0.00    0.00    0.00    0.04     0.00    0.00    0.00    0.00
  126   15.04    0.97    0.02    0.33    0.00    0.00  230.26    3.02    4.14    1.32    0.02    0.00    0.00    0.00    0.04     0.03    0.00    0.00    0.00
  127    2.35    0.01    0.02    0.32    0.00    0.00  229.62    2.96    3.63    0.36    0.00    0.00    0.00    0.00    0.03     0.00    0.00    0.00    0.00
  128    0.94    0.00    0.01    0.32    0.00    0.00  227.23    3.33    5.95    0.33    0.00    0.00    0.00    0.00    1.06     0.00    0.00    0.00    0.00
  129    0.00    0.00    0.01    0.31    0.00    0.00  224.02    3.21    6.96    0.33    0.00    0.00    0.00    0.00    1.94     0.00    0.00    0.00    0.00
  130    0.00    0.00    0.01    0.31    0.00    0.00  221.20    2.82    5.79    0.32    0.00    0.00    0.00    0.00    4.61     0.00    0.00    0.00    0.00
  131    0.00    0.00    0.01    0.30    0.00    0.00  218.31    2.88    6.29    0.31    0.00    0.00    0.00    0.00    4.08     0.00    0.00    0.00    0.00
  132    0.00    0.00    0.01    0.29    0.00    0.00  215.29    3.02    6.67    0.30    0.00    0.00    0.00    0.00    1.10     0.00    0.00    0.00    0.00
  133   18.30    1.61    0.02    0.28    0.00    0.00  229.40    2.50    2.71    1.90    0.01    0.25    0.00    0.00    0.36     0.02    0.00    0.00    0.00
  134    0.00    0.00    0.02    0.27    0.00    0.00  225.40    4.00    6.20    0.28    0.00    0.00    0.00    0.00    1.40     0.00    0.00    0.00    0.00
  135    0.00    0.00    0.01    0.25    0.00    0.00  222.28    3.12    5.36    0.26    0.00    0.00    0.00    0.00    4.90     0.00    0.00    0.00    0.00
  136    5.94    0.16    0.02    0.22    0.00    0.00  224.99    3.04    3.38    0.40    0.00    0.91    0.00    0.00    3.74     0.00    0.00    0.00    0.00
  137    0.00    0.00    0.01    0.19    0.00    0.00  221.68    3.31    5.70    0.21    0.00    0.00    0.00    0.00    7.12     0.00    0.00    0.00    0.00
  138    0.00    0.00    0.01    0.17    0.00    0.00  218.16    3.52    6.02    0.18    0.00    0.00    0.00    0.00    7.66     0.00    0.00    0.00    0.00
  139    0.83    0.00    0.01    0.16    0.00    0.00  216.13    2.85    4.20    0.17    0.00    0.03    0.00    0.00    5.29     0.00    0.00    0.00    0.00
  140    6.06    0.29    0.01    0.15    0.00    0.00  218.85    3.02    3.60    0.46    0.00    0.38    0.00    0.00    4.72     0.00    0.00    0.00    0.00
  141    6.51    0.27    0.02    0.15    0.00    0.00  220.92    4.15    5.41    0.43    0.00    0.05    0.00    0.00    7.46     0.00    0.00    0.00    0.00
  142    0.00    0.00    0.01    0.14    0.00    0.00  216.79    4.13    5.96    0.16    0.00    0.00    0.00    0.00    9.34     0.00    0.00    0.00    0.00
  143    0.84    0.00    0.01    0.14    0.00    0.00  214.17    3.46    5.75    0.15    0.00    0.00    0.00    0.00    6.35     0.00    0.00    0.00    0.00
  144    0.32    0.00    0.01    0.13    0.00    0.00  212.09    2.40    4.65    0.15    0.00    0.00    0.00    0.00    4.75     0.00    0.00    0.00    0.00
  145    0.20    0.00    0.01    0.13    0.00    0.00  209.92    2.37    4.85    0.14    0.00    0.00    0.00    0.00    6.19     0.00    0.00    0.00    0.00
  146    0.00    0.00    0.01    0.12    0.00    0.00  206.56    3.36    7.38    0.13    0.00    0.00    0.00    0.00   10.51     0.00    0.00    0.00    0.00
  147    0.00    0.00    0.01    0.12    0.00    0.00  202.86    3.70    6.43    0.13    0.00    0.00    0.00    0.00   10.98     0.00    0.00    0.00    0.00
  148    0.00    0.00    0.01    0.12    0.00    0.00  199.21    3.65    6.09    0.13    0.00    0.00    0.00    0.00   11.30     0.00    0.00    0.00    0.00
  149    0.00    0.00    0.01    0.10    0.00    0.00  195.76    3.45    6.35    0.11    0.00    0.00    0.00    0.00   11.71     0.00    0.00    0.00    0.00
  150    0.00    0.00    0.01    0.09    0.00    0.00  192.28    3.48    6.04    0.10    0.00    0.00    0.00    0.00   12.09     0.00    0.00    0.00    0.00
  151    0.00    0.00    0.01    0.09    0.00    0.00  189.24    3.04    6.11    0.10    0.00    0.00    0.00    0.00   12.24     0.00    0.00    0.00    0.00
    5   68.76    4.00    0.42    6.95    0.00    0.00  189.24   93.91  168.33   11.37    0.03    1.62    0.02    0.00  153.30     0.07    0.00    0.01    0.00
  152    0.00    0.00    0.01    0.09    0.00    0.00  186.44    2.81    5.83    0.10    0.00    0.00    0.00    0.00   13.63     0.00    0.00    0.00    0.00
  153   11.65    0.65    0.01    0.09    0.00    0.00  196.18    1.20    1.57    0.75    0.00    0.01    0.00    0.00    3.91     0.00    0.00    0.00    0.00
  154    5.85    0.20    0.01    0.08    0.00    0.00  199.60    2.21    2.57    0.29    0.00    0.00    0.00    0.00    6.39     0.00    0.00    0.00    0.00
  155    0.28    0.00    0.01    0.08    0.00    0.00  196.73    3.15    3.54    0.09    0.00    0.00    0.00    0.00    6.46     0.00    0.00    0.00    0.00
  156    0.00    0.00    0.01    0.08    0.00    0.00  190.93    5.80    6.73    0.09    0.00    0.00    0.00    0.00    4.24     0.00    0.00    0.00    0.00
  157    1.19    0.00    0.01    0.08    0.00    0.00  188.48    3.64    4.28    0.09    0.00    0.00    0.00    0.00    0.44     0.00    0.00    0.00    0.00
  158    0.09    0.00    0.01    0.07    0.00    0.00  184.36    4.21    5.68    0.08    0.00    0.00    0.00    0.00    0.78     0.00    0.00    0.00    0.00
  159   27.13    2.34    0.02    0.07    0.00    0.00  204.42    4.59    4.68    2.43    0.00    0.00    0.00    0.00    0.58     0.01    0.00    0.00    0.00
  160    0.32    0.00    0.02    0.07    0.00    0.00  200.98    3.76    4.35    0.09    0.00    0.00    0.00    0.00    0.75     0.00    0.00    0.00    0.00
  161    0.15    0.00    0.01    0.07    0.00    0.00  196.90    4.23    5.21    0.08    0.00    0.00    0.00    0.00    0.25     0.00    0.00    0.00    0.00
  162    2.81    0.07    0.01    0.06    0.00    0.00  196.60    3.03    3.47    0.15    0.00    0.00    0.00    0.00    0.07     0.00    0.00    0.00    0.00
  163    0.00    0.00    0.01    0.06    0.00    0.00  191.10    5.50    6.87    0.08    0.00    0.00    0.00    0.00    0.81     0.00    0.00    0.00    0.00
  164    0.03    0.00    0.01    0.06    0.00    0.00  186.20    4.92    6.75    0.07    0.00    0.00    0.00    0.00    0.16     0.00    0.00    0.00    0.00
  165    0.17    0.00    0.01    0.06    0.00    0.00  182.37    4.01    5.52    0.07    0.00    0.00    0.00    0.00    0.40     0.00    0.00    0.00    0.00
  166    0.23    0.00    0.01    0.06    0.00    0.00  177.68    4.92    7.33    0.07    0.00    0.00    0.00    0.00    0.30     0.00    0.00    0.00    0.00
  167    0.00    0.00    0.01    0.05    0.00    0.00  171.76    5.93    9.26    0.07    0.00    0.00    0.00    0.00    0.20     0.00    0.00    0.00    0.00
  168    0.00    0.00    0.01    0.05    0.00    0.00  166.15    5.61    8.71    0.06    0.00    0.00    0.00    0.00    0.04     0.00    0.00    0.00    0.00
  169    0.00    0.00    0.01    0.05    0.00    0.00  160.75    5.40    7.27    0.06    0.00    0.00    0.00    0.00    0.04     0.00    0.00    0.00    0.00
  170    0.00    0.00    0.01    0.05    0.00    0.00  156.08    4.67    7.44    0.06    0.00    0.00    0.00    0.00    0.04     0.00    0.00    0.00    0.00
  171    2.21    0.02    0.01    0.05    0.00    0.00  154.52    3.75    4.78    0.08    0.00    0.00    0.00    0.00    0.04     0.00    0.00    0.00    0.00
  172    0.00    0.00    0.01    0.05    0.00    0.00  149.61    4.90    6.48    0.06    0.00    0.00    0.00    0.00    0.05     0.00    0.00    0.00    0.00
  173    0.00    0.00    0.01    0.04    0.00    0.00  145.03    4.58    7.19    0.05    0.00    0.00    0.00    0.00    0.04     0.00    0.00    0.00    0.00
  174    1.11    0.00    0.01    0.04    0.00    0.00  142.99    3.15    4.91    0.05    0.00    0.00    0.00    0.00    0.03     0.00    0.00    0.00    0.00
  175    0.06    0.00    0.01    0.04    0.00    0.00  139.22    3.83    5.41    0.05    0.00    0.00    0.00    0.00    0.04     0.00    0.00    0.00    0.00
  176    0.03    0.00    0.01    0.04    0.00    0.00  134.85    4.40    6.10    0.05    0.00    0.00    0.00    0.00    0.03     0.00    0.00    0.00    0.00
  177    0.05    0.00    0.01    0.04    0.00    0.00  130.88    4.03    7.14    0.05    0.00    0.00    0.00    0.00    0.03     0.00    0.00    0.00    0.00
  178    0.03    0.00    0.01    0.04    0.00    0.00  126.53    4.37    6.56    0.05    0.00    0.00    0.00    0.00    0.03     0.00    0.00    0.00    0.00
  179    2.76    0.11    0.01    0.04    0.00    0.00  126.87    2.31    2.87    0.15    0.00    0.00    0.00    0.00    0.03     0.00    0.00    0.00    0.00
  180    5.90    0.18    0.01    0.04    0.00    0.00  129.35    3.21    3.71    0.23    0.00    0.00    0.00    0.00    0.05     0.00    0.00    0.00    0.00
  181    0.70    0.00    0.01    0.03    0.00    0.00  126.47    3.58    4.14    0.04    0.00    0.00    0.00    0.00    0.08     0.00    0.00    0.00    0.00
    6   62.75    3.57    0.33    1.72    0.00    0.00  126.47  121.68  166.35    5.62    0.00    0.02    0.01    0.00   39.95     0.01    0.00    0.00    0.00
  182    0.00    0.00    0.01    0.03    0.00    0.00  120.77    5.70    7.60    0.04    0.00    0.00    0.00    0.00    0.04     0.00    0.00    0.00    0.00
  183    0.03    0.00    0.01    0.03    0.00    0.00  116.36    4.44    6.88    0.04    0.00    0.00    0.00    0.00    0.02     0.00    0.00    0.00    0.00
  184    0.81    0.00    0.01    0.03    0.00    0.00  114.73    2.43    3.72    0.04    0.00    0.00    0.00    0.00    0.02     0.00    0.00    0.00    0.00
  185    0.43    0.00    0.01    0.03    0.00    0.00  112.20    2.97    4.12    0.04    0.00    0.00    0.00    0.00    0.03     0.00    0.00    0.00    0.00
  186    0.78    0.00    0.01    0.03    0.00    0.00  109.78    3.21    4.24    0.04    0.00    0.00    0.00    0.00    0.03     0.00    0.00    0.00    0.00
  187    5.59    0.19    0.01    0.03    0.00    0.00  111.03    4.12    4.97    0.23    0.00    0.00    0.00    0.00    0.03     0.00    0.00    0.00    0.00
  188    0.90    0.00    0.01    0.03    0.00    0.00  108.69    3.24    4.10    0.04    0.00    0.00    0.00    0.00    0.06     0.00    0.00    0.00    0.00
  189   22.52    1.71    0.02    0.03    0.00    0.00  125.31    4.07    4.51    1.75    0.00    0.00    0.00    0.00    0.03     0.01    0.00    0.00    0.00
  190    0.00    0.00    0.01    0.03    0.00    0.00  119.15    6.16    7.22    0.04    0.00    0.00    0.00    0.00    0.17     0.00    0.00    0.00    0.00
  191    0.00    0.00    0.01    0.03    0.00    0.00  113.20    5.95    7.13    0.04    0.00    0.00    0.00    0.00    0.03     0.00    0.00    0.00    0.00
  192    0.00    0.00    0.01    0.02    0.00    0.00  107.63    5.56    6.72    0.03    0.00    0.00    0.00    0.00    0.03     0.00    0.00    0.00    0.00
  193    0.03    0.00    0.01    0.02    0.00    0.00  102.83    4.83    6.89    0.03    0.00    0.00    0.00    0.00    0.03     0.00    0.00    0.00    0.00
  194    0.00    0.00    0.01    0.02    0.00    0.00   97.86    4.97    7.63    0.03    0.00    0.00    0.00    0.00    0.02     0.00    0.00    0.00    0.00
  195    2.08    0.02    0.01    0.02    0.00    0.00   97.17    2.75    3.63    0.05    0.00    0.00    0.00    0.00    0.02     0.00    0.00    0.00    0.00
  196    0.16    0.00    0.01    0.02    0.00    0.00   93.21    4.13    6.02    0.03    0.00    0.00    0.00    0.00    0.03     0.00    0.00    0.00    0.00
  197    0.00    0.00    0.01    0.02    0.00    0.00   88.81    4.40    7.02    0.03    0.00    0.00    0.00    0.00    0.02     0.00    0.00    0.00    0.00
  198    0.00    0.00    0.01    0.02    0.00    0.00   84.04    4.78    7.47    0.03    0.00    0.00    0.00    0.00    0.01     0.00    0.00    0.00    0.00
  199    0.41    0.00    0.01    0.02    0.00    0.00   80.50    3.95    6.16    0.03    0.00    0.00    0.00    0.00    0.01     0.00    0.00    0.00    0.00
  200    4.16    0.06    0.01    0.02    0.00    0.00   80.59    3.98    5.10    0.09    0.00    0.00    0.00    0.00    0.02     0.00    0.00    0.00    0.00
  201   18.87    1.47    0.02    0.02    0.00    0.00   93.15    4.75    5.33    1.50    0.00    0.00    0.00    0.00    0.06     0.00    0.00    0.00    0.00
  202    0.15    0.00    0.01    0.02    0.00    0.00   88.44    4.87    5.84    0.03    0.00    0.00    0.00    0.00    0.63     0.00    0.00    0.00    0.00
  203    0.03    0.00    0.01    0.02    0.00    0.00   82.82    5.65    7.23    0.03    0.00    0.00    0.00    0.00    0.88     0.00    0.00    0.00    0.00
  204   14.01    0.91    0.02    0.02    0.00    0.00   91.39    4.47    4.87    0.94    0.00    0.00    0.00    0.00    0.52     0.00    0.00    0.00    0.00
  205    0.00    0.00    0.01    0.02    0.00    0.00   85.28    6.11    7.64    0.03    0.00    0.00    0.00    0.00    0.97     0.00    0.00    0.00    0.00
  206    0.00    0.00    0.01    0.02    0.00    0.00   79.08    6.20    7.77    0.03    0.00    0.00    0.00    0.00    0.89     0.00    0.00    0.00    0.00
  207    0.00    0.00    0.01    0.01    0.00    0.00   73.18    5.90    8.67    0.03    0.00    0.00    0.00    0.00    0.91     0.00    0.00    0.00    0.00
  208    0.00    0.00    0.01    0.01    0.00    0.00   68.08    5.10    8.76    0.02    0.00    0.00    0.00    0.00    0.91     0.00    0.00    0.00    0.00
  209    0.00    0.00    0.01    0.01    0.00    0.00   64.06    4.01    7.69    0.02    0.00    0.00    0.00    0.00    0.52     0.00    0.00    0.00    0.00
  210   27.76    2.42    0.02    0.01    0.00    0.00   86.91    2.36    2.58    2.45    0.00    0.01    0.00    0.00    0.05     0.01    0.00    0.00    0.00
  211    1.71    0.01    0.02    0.01    0.00    0.00   85.93    2.68    2.92    0.04    0.00    0.00    0.00    0.00    0.17     0.00    0.00    0.00    0.00
  212    2.11    0.02    0.02    0.01    0.00    0.00   85.69    2.32    2.54    0.05    0.00    0.00    0.00    0.00    0.02     0.00    0.00    0.00    0.00
    7  102.55    6.81    0.34    0.67    0.00    0.00   85.69  136.05  182.95    7.81    0.01    0.02    0.01    0.00    7.17     0.02    0.00    0.00    0.00
  213    2.97    0.03    0.02    0.01    0.00    0.00   84.83    3.79    4.10    0.05    0.00    0.00    0.00    0.00    0.02     0.00    0.00    0.00    0.00
  214    0.00    0.00    0.01    0.01    0.00    0.00   79.71    5.13    5.95    0.03    0.00    0.00    0.00    0.00    0.02     0.00    0.00    0.00    0.00
  215    0.00    0.00    0.01    0.01    0.00    0.00   74.21    5.49    6.80    0.02    0.00    0.00    0.00    0.00    0.01     0.00    0.00    0.00    0.00
  216    0.84    0.00    0.01    0.01    0.00    0.00   69.48    5.57    6.73    0.02    0.00    0.00    0.00    0.00    0.01     0.00    0.00    0.00    0.00
  217    2.09    0.04    0.01    0.01    0.00    0.00   67.16    4.36    5.00    0.06    0.00    0.00    0.00    0.00    0.02     0.00    0.00    0.00    0.00
  218    0.21    0.00    0.01    0.01    0.00    0.00   63.24    4.13    5.17    0.02    0.00    0.00    0.00    0.00    0.05     0.00    0.00    0.00    0.00
  219    0.00    0.00    0.01    0.01    0.00    0.00   58.72    4.52    5.83    0.02    0.00    0.00    0.00    0.00    0.04     0.00    0.00    0.00    0.00
  220    0.00    0.00    0.01    0.01    0.00    0.00   55.24    3.49    6.18    0.02    0.00    0.00    0.00    0.00    0.02     0.00    0.00    0.00    0.00
  221    0.42    0.00    0.01    0.01    0.00    0.00   53.48    2.17    3.79    0.02    0.00    0.00    0.00    0.00    0.02     0.00    0.00    0.00    0.00
  222   33.16    3.09    0.03    0.01    0.00    0.00   79.88    3.49    3.73    3.12    0.00    0.01    0.00    0.00    0.01     0.01    0.00    0.00    0.00
  223    1.19    0.01    0.02    0.01    0.00    0.00   76.44    4.63    5.14    0.04    0.00    0.00    0.00    0.00    0.19     0.00    0.00    0.00    0.00
  224    0.12    0.00    0.02    0.01    0.00    0.00   71.44    5.12    5.79    0.03    0.00    0.00    0.00    0.00    0.06     0.00    0.00    0.00    0.00
  225    0.00    0.00    0.02    0.01    0.00    0.00   66.21    5.23    6.31    0.02    0.00    0.00    0.00    0.00    0.16     0.00    0.00    0.00    0.00
  226    0.05    0.00    0.01    0.01    0.00    0.00   62.05    4.22    5.71    0.02    0.00    0.00    0.00    0.00    0.17     0.00    0.00    0.00    0.00
  227    1.64    0.02    0.01    0.01    0.00    0.00   60.21    3.46    4.75    0.04    0.00    0.00    0.00    0.00    0.18     0.00    0.00    0.00    0.00
  228    0.00    0.00    0.01    0.01    0.00    0.00   55.66    4.55    6.48    0.02    0.00    0.00    0.00    0.00    0.10     0.00    0.00    0.00    0.00
  229    5.72    0.22    0.01    0.01    0.00    0.00   57.85    3.29    4.47    0.24    0.00    0.00    0.00    0.00    0.18     0.00    0.00    0.00    0.00
  230    0.00    0.00    0.01    0.01    0.00    0.00   53.95    3.90    5.48    0.02    0.00    0.00    0.00    0.00    0.14     0.00    0.00    0.00    0.00
  231    0.58    0.00    0.01    0.01    0.00    0.00   51.93    2.60    3.67    0.02    0.00    0.00    0.00    0.00    0.20     0.00    0.00    0.00    0.00
  232    0.03    0.00    0.01    0.01    0.00    0.00   48.01    3.94    5.72    0.02    0.00    0.00    0.00    0.00    0.12     0.00    0.00    0.00    0.00
  233    5.50    0.24    0.01    0.01    0.00    0.00   49.30    3.95    5.38    0.26    0.00    0.00    0.00    0.00    0.20     0.00    0.00    0.00    0.00
  234    0.00    0.00    0.01    0.01    0.00    0.00   45.03    4.27    6.78    0.02    0.00    0.00    0.00    0.00    0.17     0.00    0.00    0.00    0.00
  235    4.52    0.14    0.01    0.01    0.00    0.00   47.00    2.39    3.37    0.16    0.00    0.00    0.00    0.00    0.22     0.00    0.00    0.00    0.00
  236    0.60    0.00    0.01    0.01    0.00    0.00   45.31    2.29    3.72    0.02    0.00    0.00    0.00    0.00    0.12     0.00    0.00    0.00    0.00
  237    0.25    0.00    0.01    0.01    0.00    0.00   43.81    1.76    3.92    0.02    0.00    0.00    0.00    0.00    0.05     0.00    0.00    0.00    0.00
  238    0.00    0.00    0.01    0.01    0.00    0.00   41.75    2.06    5.51    0.02    0.00    0.00    0.00    0.00    0.04     0.00    0.00    0.00    0.00
  239    0.00    0.00    0.01    0.01    0.00    0.00   40.27    1.48    5.38    0.02    0.00    0.00    0.00    0.00    0.06     0.00    0.00    0.00    0.00
  240    0.00    0.00    0.01    0.01    0.00    0.00   39.10    1.17    5.89    0.01    0.00    0.00    0.00    0.00    0.05     0.00    0.00    0.00    0.00
  241    0.00    0.00    0.01    0.01    0.00    0.00   38.05    1.05    5.85    0.01    0.00    0.00    0.00    0.00    0.36     0.00    0.00    0.00    0.00
  242    0.00    0.00    0.01    0.00    0.00    0.00   37.27    0.78    6.08    0.01    0.00    0.00    0.00    0.00    0.36     0.00    0.00    0.00    0.00
  243    1.17    0.01    0.01    0.00    0.00    0.00   37.11    1.32    6.27    0.02    0.00    0.00    0.00    0.00    0.23     0.00    0.00    0.00    0.00
    8   61.07    3.78    0.40    0.25    0.00    0.00   37.11  105.59  164.95    4.43    0.00    0.01    0.00    0.00    3.55     0.01    0.00    0.00    0.00
  244    0.00    0.00    0.01    0.00    0.00    0.00   36.18    0.93    5.80    0.01    0.00    0.00    0.00    0.00    0.28     0.00    0.00    0.00    0.00
  245    0.00    0.00    0.01    0.00    0.00    0.00   35.33    0.85    5.33    0.01    0.00    0.00    0.00    0.00    0.29     0.00    0.00    0.00    0.00
  246    0.00    0.00    0.01    0.00    0.00    0.00   34.59    0.74    6.00    0.01    0.00    0.00    0.00    0.00    0.29     0.00    0.00    0.00    0.00
  247    0.00    0.00    0.01    0.00    0.00    0.00   33.97    0.62    6.05    0.01    0.00    0.00    0.00    0.00    0.27     0.00    0.00    0.00    0.00
  248    0.00    0.00    0.01    0.00    0.00    0.00   33.43    0.55    6.74    0.01    0.00    0.00    0.00    0.00    0.21     0.00    0.00    0.00    0.00
  249    0.00    0.00    0.01    0.00    0.00    0.00   32.97    0.46    5.84    0.01    0.00    0.00    0.00    0.00    0.10     0.00    0.00    0.00    0.00
  250    0.00    0.00    0.01    0.00    0.00    0.00   32.51    0.46    5.37    0.01    0.00    0.00    0.00    0.00    0.09     0.00    0.00    0.00    0.00
  251    0.00    0.00    0.01    0.00    0.00    0.00   31.91    0.60    5.53    0.01    0.00    0.00    0.00    0.00    0.09     0.00    0.00    0.00    0.00
  252    0.00    0.00    0.01    0.00    0.00    0.00   31.20    0.71    5.32    0.01    0.00    0.00    0.00    0.00    0.10     0.00    0.00    0.00    0.00
  253    0.00    0.00    0.01    0.00    0.00    0.00   30.71    0.49    6.50    0.01    0.00    0.00    0.00    0.00    0.09     0.00    0.00    0.00    0.00
  254    0.00    0.00    0.01    0.00    0.00    0.00   30.16    0.55    6.66    0.01    0.00    0.00    0.00    0.00    0.09     0.00    0.00    0.00    0.00
  255    0.00    0.00    0.01    0.00    0.00    0.00   29.63    0.53    6.28    0.01    0.00    0.00    0.00    0.00    0.09     0.00    0.00    0.00    0.00
  256    0.00    0.00    0.01    0.00    0.00    0.00   29.09    0.54    6.31    0.01    0.00    0.00    0.00    0.00    0.09     0.00    0.00    0.00    0.00
  257    0.00    0.00    0.01    0.00    0.00    0.00   28.60    0.49    5.53    0.01    0.00    0.00    0.00    0.00    0.09     0.00    0.00    0.00    0.00
  258    2.68    0.04    0.01    0.00    0.00    0.00   29.07    2.17    5.42    0.05    0.00    0.00    0.00    0.00    0.08     0.00    0.00    0.00    0.00
  259    0.00    0.00    0.01    0.00    0.00    0.00   27.84    1.23    5.54    0.01    0.00    0.00    0.00    0.00    0.30     0.00    0.00    0.00    0.00
  260    1.00    0.00    0.01    0.00    0.00    0.00   27.69    1.14    4.00    0.01    0.00    0.00    0.00    0.00    0.26     0.00    0.00    0.00    0.00
  261    2.02    0.01    0.01    0.00    0.00    0.00   27.25    2.44    5.22    0.02    0.00    0.00    0.00    0.00    0.29     0.00    0.00    0.00    0.00
  262    0.00    0.00    0.01    0.00    0.00    0.00   26.14    1.11    5.35    0.01    0.00    0.00    0.00    0.00    0.32     0.00    0.00    0.00    0.00
  263    0.00    0.00    0.00    0.00    0.00    0.00   25.11    1.03    4.93    0.01    0.00    0.00    0.00    0.00    0.32     0.00    0.00    0.00    0.00
  264   28.32    2.22    0.02    0.00    0.00    0.00   49.13    1.94    2.51    2.23    0.00    0.01    0.00    0.00    0.15     0.01    0.00    0.00    0.00
  265    0.00    0.00    0.01    0.00    0.00    0.00   46.25    2.88    4.50    0.02    0.00    0.00    0.00    0.00    0.37     0.00    0.00    0.00    0.00
  266    0.00    0.00    0.01    0.00    0.00    0.00   44.36    1.89    5.20    0.01    0.00    0.00    0.00    0.00    0.34     0.00    0.00    0.00    0.00
  267    0.00    0.00    0.01    0.00    0.00    0.00   42.39    1.97    5.44    0.01    0.00    0.00    0.00    0.00    0.35     0.00    0.00    0.00    0.00
  268    0.00    0.00    0.01    0.00    0.00    0.00   40.95    1.44    4.57    0.01    0.00    0.00    0.00    0.00    0.36     0.00    0.00    0.00    0.00
  269    0.00    0.00    0.01    0.00    0.00    0.00   39.72    1.23    4.48    0.01    0.00    0.00    0.00    0.00    0.37     0.00    0.00    0.00    0.00
  270    1.06    0.00    0.01    0.00    0.00    0.00   39.50    1.27    3.02    0.01    0.00    0.00    0.00    0.00    0.13     0.00    0.00    0.00    0.00
  271    0.00    0.00    0.01    0.00    0.00    0.00   37.91    1.60    4.48    0.01    0.00    0.00    0.00    0.00    0.36     0.00    0.00    0.00    0.00
  272    0.00    0.00    0.01    0.00    0.00    0.00   36.61    1.29    5.22    0.01    0.00    0.00    0.00    0.00    0.37     0.00    0.00    0.00    0.00
  273    0.00    0.00    0.01    0.00    0.00    0.00   35.49    1.13    5.47    0.01    0.00    0.00    0.00    0.00    0.38     0.00    0.00    0.00    0.00
    9   35.08    2.27    0.22    0.09    0.00    0.00   35.49   34.28  158.61    2.58    0.00    0.01    0.00    0.00    6.93     0.01    0.00    0.00    0.00
  274    0.00    0.00    0.01    0.00    0.00    0.00   34.50    0.99    3.82    0.01    0.00    0.00    0.00    0.00    0.30     0.00    0.00    0.00    0.00
  275    0.00    0.00    0.01    0.00    0.00    0.00   33.58    0.92    3.11    0.01    0.00    0.00    0.00    0.00    0.01     0.00    0.00    0.00    0.00
  276    0.00    0.00    0.01    0.00    0.00    0.00   32.70    0.88    4.35    0.01    0.00    0.00    0.00    0.00    0.00     0.00    0.00    0.00    0.00
  277    0.00    0.00    0.01    0.00    0.00    0.00   31.81    0.89    5.00    0.01    0.00    0.00    0.00    0.00    0.00     0.00    0.00    0.00    0.00
  278    0.00    0.00    0.01    0.00    0.00    0.00   31.07    0.74    3.68    0.01    0.00    0.00    0.00    0.00    0.00     0.00    0.00    0.00    0.00
  279    1.07    0.00    0.01    0.00    0.00    0.00   31.34    0.80    2.22    0.01    0.00    0.00    0.00    0.00    0.00     0.00    0.00    0.00    0.00
  280   15.31    0.95    0.01    0.00    0.00    0.00   44.76    0.87    1.17    0.96    0.00    0.04    0.00    0.00    0.00     0.01    0.00    0.00    0.00
  281   24.10    1.91    0.02    0.00    0.00    0.00   65.42    1.33    1.50    1.93    0.00    0.01    0.00    0.00    0.01     0.01    0.00    0.00    0.00
  282    8.01    0.42    0.02    0.00    0.00    0.00   70.94    1.99    2.25    0.45    0.00    0.00    0.00    0.00    0.02     0.00    0.00    0.00    0.00
  283    0.00    0.00    0.02    0.00    0.00    0.00   69.45    1.49    2.55    0.02    0.00    0.00    0.00    0.00    0.02     0.00    0.00    0.00    0.00
  284    0.10    0.00    0.02    0.00    0.00    0.00   68.77    0.77    1.52    0.02    0.00    0.00    0.00    0.00    0.00     0.00    0.00    0.00    0.00
  285    0.00    0.00    0.02    0.00    0.00    0.00   67.24    1.53    3.09    0.02    0.00    0.00    0.00    0.00    0.00     0.00    0.00    0.00    0.00
  286    0.00    0.00    0.01    0.00    0.00    0.00   65.58    1.67    3.68    0.02    0.00    0.00    0.00    0.00    0.00     0.00    0.00    0.00    0.00
  287    0.00    0.00    0.01    0.00    0.00    0.00   64.04    1.54    4.13    0.01    0.00    0.00    0.00    0.00    0.00     0.00    0.00    0.00    0.00
  288    0.00    0.00    0.01    0.00    0.00    0.00   62.31    1.73    5.27    0.01    0.00    0.00    0.00    0.00    0.00     0.00    0.00    0.00    0.00
  289    0.00    0.00    0.01    0.00    0.00    0.00   60.75    1.56    5.46    0.01    0.00    0.00    0.00    0.00    0.00     0.00    0.00    0.00    0.00
  290    0.00    0.00    0.01    0.00    0.00    0.00   59.58    1.17    4.17    0.01    0.00    0.00    0.00    0.00    0.00     0.00    0.00    0.00    0.00
  291    0.00    0.00    0.01    0.00    0.00    0.00   58.50    1.08    3.45    0.01    0.00    0.00    0.00    0.00    0.00     0.00    0.00    0.00    0.00
  292    0.00    0.00    0.01    0.00    0.00    0.00   57.46    1.04    3.42    0.01    0.00    0.00    0.00    0.00    0.00     0.00    0.00    0.00    0.00
  293    0.00    0.00    0.01    0.00    0.00    0.00   56.36    1.10    3.31    0.01    0.00    0.00    0.00    0.00    0.00     0.00    0.00    0.00    0.00
  294    0.00    0.00    0.01    0.00    0.00    0.00   55.46    0.90    3.21    0.01    0.00    0.00    0.00    0.00    0.00     0.00    0.00    0.00    0.00
  295    4.77    0.13    0.01    0.00    0.00    0.00   58.79    1.29    1.94    0.14    0.00    0.01    0.00    0.00    0.00     0.00    0.00    0.00    0.00
  296    0.00    0.00    0.01    0.00    0.00    0.00   57.45    1.34    3.52    0.01    0.00    0.00    0.00    0.00    0.01     0.00    0.00    0.00    0.00
  297    0.00    0.00    0.01    0.00    0.00    0.00   56.53    0.91    2.94    0.01    0.00    0.00    0.00    0.00    0.00     0.00    0.00    0.00    0.00
  298    0.00    0.00    0.01    0.00    0.00    0.00   55.69    0.84    3.40    0.01    0.00    0.00    0.00    0.00    0.00     0.00    0.00    0.00    0.00
  299    0.00    0.00    0.01    0.00    0.00    0.00   54.94    0.75    3.26    0.01    0.00    0.00    0.00    0.00    0.00     0.00    0.00    0.00    0.00
  300    0.00    0.00    0.01    0.00    0.00    0.00   54.31    0.63    1.94    0.01    0.00    0.00    0.00    0.00    0.00     0.00    0.00    0.00    0.00
  301    0.62    0.00    0.01    0.00    0.00    0.00   54.30    0.63    2.14    0.01    0.00    0.00    0.00    0.00    0.00     0.00    0.00    0.00    0.00
  302    0.00    0.00    0.01    0.00    0.00    0.00   53.41    0.89    3.29    0.01    0.00    0.00    0.00    0.00    0.00     0.00    0.00    0.00    0.00
  303    0.00    0.00    0.01    0.00    0.00    0.00   52.58    0.82    2.92    0.01    0.00    0.00    0.00    0.00    0.00     0.00    0.00    0.00    0.00
  304    0.00    0.00    0.01    0.00    0.00    0.00   51.85    0.73    2.25    0.01    0.00    0.00    0.00    0.00    0.00     0.00    0.00    0.00    0.00
   10   53.98    3.40    0.35    0.03    0.00    0.00   51.85   33.84   97.97    3.78    0.00    0.07    0.01    0.00    0.41     0.02    0.00    0.00    0.00
  305    0.00    0.00    0.01    0.00    0.00    0.00   51.26    0.59    2.58    0.01    0.00    0.00    0.00    0.00    0.00     0.00    0.00    0.00    0.00
  306    0.00    0.00    0.01    0.00    0.00    0.00   50.63    0.63    3.44    0.01    0.00    0.00    0.00    0.00    0.00     0.00    0.00    0.00    0.00
  307    0.00    0.00    0.01    0.00    0.00    0.00   50.10    0.53    2.49    0.01    0.00    0.00    0.00    0.00    0.00     0.00    0.00    0.00    0.00
  308    0.00    0.00    0.01    0.00    0.00    0.00   49.40    0.70    3.79    0.01    0.00    0.00    0.00    0.00    0.00     0.00    0.00    0.00    0.00
  309    0.00    0.00    0.01    0.00    0.00    0.00   48.82    0.57    2.69    0.01    0.00    0.00    0.00    0.00    0.00     0.00    0.00    0.00    0.00
  310    0.00    0.00    0.01    0.00    0.00    0.00   48.25    0.57    3.15    0.01    0.00    0.00    0.00    0.00    0.00     0.00    0.00    0.00    0.00
  311    0.00    0.00    0.01    0.00    0.00    0.00   47.60    0.65    3.23    0.01    0.00    0.00    0.00    0.00    0.00     0.00    0.00    0.00    0.00
  312    0.00    0.00    0.01    0.00    0.00    0.00   47.10    0.49    2.39    0.01    0.00    0.00    0.00    0.00    0.00     0.00    0.00    0.00    0.00
  313    0.00    0.00    0.01    0.00    0.00    0.00   46.58    0.52    2.92    0.01    0.00    0.00    0.00    0.00    0.00     0.00    0.00    0.00    0.00
  314    1.70    0.01    0.01    0.00    0.00    0.00   46.26    2.01    6.28    0.01    0.00    0.00    0.00    0.00    0.00     0.00    0.00    0.00    0.00
  315    0.00    0.00    0.01    0.00    0.00    0.00   45.65    0.61    2.93    0.01    0.00    0.00    0.00    0.00    0.00     0.00    0.00    0.00    0.00
  316    0.00    0.00    0.01    0.00    0.00    0.00   45.20    0.45    1.80    0.01    0.00    0.00    0.00    0.00    0.00     0.00    0.00    0.00    0.00
  317    0.00    0.00    0.00    0.00    0.00    0.00   44.78    0.42    2.22    0.01    0.00    0.00    0.00    0.00    0.00     0.00    0.00    0.00    0.00
  318    0.00    0.00    0.00    0.00    0.00    0.00   44.27    0.52    2.79    0.01    0.00    0.00    0.00    0.00    0.00     0.00    0.00    0.00    0.00
  319    0.00    0.00    0.00    0.00    0.00    0.00   43.89    0.38    2.34    0.00    0.00    0.00    0.00    0.00    0.00     0.00    0.00    0.00    0.00
  320    0.00    0.00    0.00    0.00    0.00    0.00   43.51    0.38    3.11    0.00    0.00    0.00    0.00    0.00    0.00     0.00    0.00    0.00    0.00
  321   10.92    0.62    0.01    0.00    0.00    0.00   52.03    1.73    3.09    0.63    0.00    0.05    0.00    0.00    0.00     0.00    0.00    0.00    0.00
  322    0.00    0.00    0.01    0.00    0.00    0.00   51.48    0.55    1.93    0.01    0.00    0.00    0.00    0.00    0.00     0.00    0.00    0.00    0.00
  323    0.00    0.00    0.01    0.00    0.00    0.00   51.04    0.44    1.28    0.01    0.00    0.00    0.00    0.00    0.00     0.00    0.00    0.00    0.00
  324    0.00    0.00    0.01    0.00    0.00    0.00   50.63    0.42    1.14    0.01    0.00    0.00    0.00    0.00    0.00     0.00    0.00    0.00    0.00
  325    9.33    0.51    0.01    0.00    0.00    0.00   58.38    1.02    1.40    0.52    0.00    0.01    0.00    0.00    0.00     0.00    0.00    0.00    0.00
  326   40.92    3.31    0.04    0.00    0.00    0.00   93.21    2.41    2.83    3.34    0.01    0.01    0.00    0.00    0.00     0.02    0.00    0.00    0.00
  327    0.37    0.00    0.03    0.00    0.00    0.00   92.09    1.49    2.66    0.03    0.00    0.00    0.00    0.00    0.00     0.00    0.00    0.00    0.00
  328    0.00    0.00    0.02    0.00    0.00    0.00   90.22    1.87    3.98    0.02    0.00    0.00    0.00    0.00    0.00     0.00    0.00    0.00    0.00
  329    0.00    0.00    0.02    0.00    0.00    0.00   88.79    1.42    3.55    0.02    0.00    0.00    0.00    0.00    0.00     0.00    0.00    0.00    0.00
  330    0.00    0.00    0.02    0.00    0.00    0.00   88.20    0.59    1.37    0.02    0.00    0.00    0.00    0.00    0.00     0.00    0.00    0.00    0.00
  331    0.00    0.00    0.02    0.00    0.00    0.00   87.74    0.46    1.08    0.02    0.00    0.00    0.00    0.00    0.00     0.00    0.00    0.00    0.00
  332   13.83    0.93    0.02    0.00    0.00    0.00   99.77    0.77    0.84    0.96    0.00    0.01    0.00    0.00    0.00     0.01    0.00    0.00    0.00
  333    1.54    0.00    0.02    0.00    0.00    0.00   99.12    2.17    2.46    0.03    0.00    0.00    0.00    0.00    0.00     0.00    0.00    0.00    0.00
  334   22.12    1.55    0.03    0.00    0.00    0.00  117.67    1.81    2.01    1.58    0.00    0.01    0.00    0.00    0.00     0.01    0.00    0.00    0.00
   11  100.73    6.93    0.34    0.01    0.00    0.00  117.67   27.20   77.78    7.28    0.02    0.09    0.01    0.00    0.01     0.05    0.00    0.01    0.00
  335    0.00    0.00    0.03    0.00    0.00    0.00  116.55    1.12    1.90    0.03    0.00    0.00    0.00    0.00    0.00     0.00    0.00    0.00    0.00
  336    0.55    0.00    0.03    0.00    0.00    0.00  115.11    1.99    3.34    0.03    0.00    0.00    0.00    0.00    0.00     0.00    0.00    0.00    0.00
  337    0.00    0.00    0.02    0.00    0.00    0.00  114.33    0.78    1.58    0.02    0.00    0.00    0.00    0.00    0.00     0.00    0.00    0.00    0.00
  338    0.66    0.00    0.02    0.00    0.00    0.00  114.31    0.68    1.24    0.02    0.00    0.00    0.00    0.00    0.00     0.00    0.00    0.00    0.00
  339   17.09    1.14    0.03    0.00    0.00    0.00  129.38    0.72    0.81    1.17    0.00    0.01    0.00    0.00    0.00     0.01    0.00    0.00    0.00
  340   14.94    0.98    0.04    0.00    0.00    0.00  142.21    0.98    1.12    1.02    0.00    0.00    0.00    0.00    0.00     0.01    0.00    0.00    0.00
  341    0.00    0.00    0.03    0.00    0.00    0.00  141.48    0.73    0.97    0.03    0.00    0.00    0.00    0.00    0.00     0.00    0.00    0.00    0.00
  342    0.00    0.00    0.03    0.00    0.00    0.00  140.28    1.20    1.99    0.03    0.00    0.00    0.00    0.00    0.00     0.00    0.00    0.00    0.00
  343    8.86    0.44    0.03    0.00    0.00    0.00  147.45    1.17    1.34    0.48    0.00    0.00    0.00    0.00    0.00     0.00    0.00    0.00    0.00
  344    0.31    0.00    0.03    0.00    0.00    0.00  147.03    0.73    0.96    0.03    0.00    0.00    0.00    0.00    0.00     0.00    0.00    0.00    0.00
  345    0.00    0.00    0.03    0.00    0.00    0.00  145.72    1.31    2.05    0.03    0.00    0.00    0.00    0.00    0.00     0.00    0.00    0.00    0.00
  346    0.00    0.00    0.03    0.00    0.00    0.00  144.65    1.07    1.98    0.03    0.00    0.00    0.00    0.00    0.00     0.00    0.00    0.00    0.00
  347    0.04    0.00    0.02    0.00    0.00    0.00  143.66    1.04    2.13    0.02    0.00    0.00    0.00    0.00    0.00     0.00    0.00    0.00    0.00
  348    0.00    0.00    0.02    0.00    0.00    0.00  142.99    0.67    1.49    0.02    0.00    0.00    0.00    0.00    0.00     0.00    0.00    0.00    0.00
  349    1.03    0.00    0.02    0.00    0.00    0.00  142.83    0.16    0.47    0.02    0.00    0.00    0.00    0.00    0.00     0.00    0.00    0.00    0.00
  350   28.70    2.36    0.04    0.00    0.00    0.00  169.58    0.35    0.43    2.40    0.01    0.01    0.00    0.00    0.00     0.02    0.00    0.00    0.00
  351    0.00    0.00    0.04    0.00    0.00    0.00  168.47    1.11    1.32    0.04    0.00    0.00    0.00    0.00    0.00     0.00    0.00    0.00    0.00
  352    6.94    0.29    0.04    0.00    0.00    0.00  173.71    1.34    1.53    0.32    0.00    0.00    0.00    0.00    0.00     0.00    0.00    0.00    0.00
  353    0.90    0.00    0.03    0.00    0.00    0.00  173.32    1.29    1.46    0.03    0.00    0.00    0.00    0.00    0.00     0.00    0.00    0.00    0.00
  354    0.00    0.00    0.03    0.00    0.00    0.00  171.86    1.46    2.39    0.03    0.00    0.00    0.00    0.00    0.00     0.00    0.00    0.00    0.00
  355    0.00    0.00    0.03    0.00    0.00    0.00  170.82    1.04    1.98    0.03    0.00    0.00    0.00    0.00    0.00     0.00    0.00    0.00    0.00
  356    0.00    0.00    0.03    0.00    0.00    0.00  169.92    0.90    1.85    0.03    0.00    0.00    0.00    0.00    0.00     0.00    0.00    0.00    0.00
  357    0.00    0.00    0.02    0.00    0.00    0.00  169.14    0.78    1.67    0.03    0.00    0.00    0.00    0.00    0.00     0.00    0.00    0.00    0.00
  358    0.00    0.00    0.02    0.00    0.00    0.00  168.10    1.04    2.43    0.02    0.00    0.00    0.00    0.00    0.00     0.00    0.00    0.00    0.00
  359    1.68    0.01    0.02    0.00    0.00    0.00  168.97    0.80    1.28    0.03    0.00    0.00    0.00    0.00    0.00     0.00    0.00    0.00    0.00
  360    3.61    0.09    0.02    0.00    0.00    0.00  170.49    1.98    2.43    0.11    0.00    0.00    0.00    0.00    0.00     0.00    0.00    0.00    0.00
  361    0.00    0.00    0.02    0.00    0.00    0.00  169.65    0.84    1.58    0.02    0.00    0.00    0.00    0.00    0.00     0.00    0.00    0.00    0.00
  362    0.00    0.00    0.02    0.00    0.00    0.00  168.78    0.87    1.82    0.02    0.00    0.00    0.00    0.00    0.07     0.00    0.00    0.00    0.00
  363   13.52    0.79    0.03    0.00    0.00    0.00  179.93    1.47    1.67    0.82    0.00    0.01    0.00    0.00    0.03     0.01    0.00    0.00    0.00
  364    0.00    0.00    0.03    0.00    0.00    0.00  178.67    1.26    2.00    0.03    0.00    0.00    0.00    0.00    0.07     0.00    0.00    0.00    0.00
  365    0.00    0.00    0.02    0.00    0.00    0.00  177.58    1.09    1.94    0.02    0.00    0.00    0.00    0.00    0.07     0.00    0.00    0.00    0.00
   12   98.84    6.11    0.86    0.00    0.00    0.00  177.58   31.97   51.15    6.97    0.02    0.04    0.02    0.00    0.24     0.06    0.00    0.01    0.00

 2005  849.00   53.82    5.59   51.34   40.39    0.00  177.58  775.48 1461.57  110.75    0.27    2.01    0.14    8.77  226.10     0.70    0.02    0.10    0.00
1
    SWAT Nov 14 2012    VER 2012/Rev 582                                            

    General Input/Output section (file.cio):                                        
    2/7/2013 12:00:00 AM ARCGIS-SWAT interface AV                                   
                                                                                    
Annual Summary for Watershed in year    4 of simulation

UNIT                                    PERCO    TILE                           WATER     SED     NO3     NO3     NO3     NO3        N       P       P
TIME     PREC    SURQ    LATQ     GWQ    LATE       Q     SW       ET     PET   YIELD   YIELD    SURQ    LATQ    PERC    CROP  ORGANIC SOLUBLE ORGANIC TILENO3
         (mm)    (mm)    (mm)    (mm)    (mm)    (mm)    (mm)    (mm)    (mm)    (mm)    (mm)   ------------------(kg nutrient/ha)-------------------- (kg/ha)
    1    0.56    0.00    0.02    0.00    0.00    0.00  176.95    1.20    2.21    0.02    0.00    0.00    0.00    0.00    0.00     0.00    0.00    0.00    0.00
    2    0.15    0.00    0.02    0.00    0.00    0.00  176.50    0.60    1.21    0.02    0.00    0.00    0.00    0.00    0.00     0.00    0.00    0.00    0.00
    3    6.86    0.26    0.02    0.00    0.00    0.00  181.72    1.34    1.51    0.28    0.00    0.00    0.00    0.00    0.00     0.00    0.00    0.00    0.00
    4    0.00    0.00    0.02    0.00    0.00    0.00  180.65    1.07    1.76    0.02    0.00    0.00    0.00    0.00    0.00     0.00    0.00    0.00    0.00
    5    0.00    0.00    0.02    0.00    0.00    0.00  179.54    1.11    2.10    0.02    0.00    0.00    0.00    0.00    0.00     0.00    0.00    0.00    0.00
    6    2.37    0.02    0.02    0.00    0.00    0.00  179.51    2.38    2.76    0.03    0.00    0.00    0.00    0.00    0.00     0.00    0.00    0.00    0.00
    7    0.00    0.00    0.02    0.00    0.00    0.00  178.75    0.75    1.62    0.02    0.00    0.00    0.00    0.00    0.00     0.00    0.00    0.00    0.00
    8    0.00    0.00    0.02    0.00    0.00    0.00  177.87    0.88    2.02    0.02    0.00    0.00    0.00    0.00    0.00     0.00    0.00    0.00    0.00
    9    0.00    0.00    0.02    0.00    0.00    0.00  176.45    1.42    3.63    0.02    0.00    0.00    0.00    0.00    0.00     0.00    0.00    0.00    0.00
   10    0.00    0.00    0.02    0.00    0.00    0.00  175.91    0.54    1.57    0.02    0.00    0.00    0.00    0.00    0.00     0.00    0.00    0.00    0.00
   11    0.00    0.00    0.02    0.00    0.00    0.00  175.42    0.49    1.51    0.02    0.00    0.00    0.00    0.00    0.00     0.00    0.00    0.00    0.00
   12    2.53    0.02    0.02    0.00    0.00    0.00  177.01    0.91    1.18    0.04    0.00    0.00    0.00    0.00    0.00     0.00    0.00    0.00    0.00
   13    0.00    0.00    0.02    0.00    0.00    0.00  176.33    0.68    1.33    0.02    0.00    0.00    0.00    0.00    0.00     0.00    0.00    0.00    0.00
   14    5.86    0.19    0.02    0.00    0.00    0.00  179.12    2.84    3.69    0.21    0.00    0.00    0.00    0.00    0.00     0.00    0.00    0.00    0.00
   15    0.00    0.00    0.02    0.00    0.00    0.00  177.02    2.11    4.97    0.02    0.00    0.00    0.00    0.00    0.00     0.00    0.00    0.00    0.00
   16    0.00    0.00    0.01    0.00    0.00    0.00  176.52    0.50    1.39    0.02    0.00    0.00    0.00    0.00    0.00     0.00    0.00    0.00    0.00
   17    0.39    0.00    0.01    0.00    0.00    0.00  176.07    0.84    2.17    0.01    0.00    0.00    0.00    0.00    0.00     0.00    0.00    0.00    0.00
   18    9.34    0.49    0.02    0.00    0.00    0.00  181.64    3.23    4.07    0.51    0.00    0.01    0.00    0.00    0.00     0.01    0.00    0.00    0.00
   19    0.00    0.00    0.02    0.00    0.00    0.00  180.84    0.80    1.69    0.02    0.00    0.00    0.00    0.00    0.00     0.00    0.00    0.00    0.00
   20    0.00    0.00    0.02    0.00    0.00    0.00  179.67    1.17    2.65    0.02    0.00    0.00    0.00    0.00    0.00     0.00    0.00    0.00    0.00
   21    0.00    0.00    0.01    0.00    0.00    0.00  178.95    0.72    1.82    0.01    0.00    0.00    0.00    0.00    0.00     0.00    0.00    0.00    0.00
   22    7.17    0.33    0.02    0.00    0.00    0.00  183.49    2.27    2.51    0.35    0.00    0.00    0.00    0.00    0.00     0.01    0.00    0.00    0.00
   23    0.42    0.00    0.02    0.00    0.00    0.00  183.51    0.40    0.67    0.02    0.00    0.00    0.00    0.00    0.00     0.00    0.00    0.00    0.00
   24    0.67    0.00    0.01    0.00    0.00    0.00  183.07    1.11    1.41    0.01    0.00    0.00    0.00    0.00    0.00     0.00    0.00    0.00    0.00
   25    0.00    0.00    0.01    0.00    0.00    0.00  180.27    2.80    4.96    0.01    0.00    0.00    0.00    0.00    0.00     0.00    0.00    0.00    0.00
   26    0.00    0.00    0.01    0.00    0.00    0.00  179.04    1.23    3.07    0.01    0.00    0.00    0.00    0.00    0.00     0.00    0.00    0.00    0.00
   27    0.00    0.00    0.01    0.00    0.00    0.00  178.28    0.76    2.21    0.01    0.00    0.00    0.00    0.00    0.00     0.00    0.00    0.00    0.00
   28    0.00    0.00    0.01    0.00    0.00    0.00  177.41    0.87    2.76    0.01    0.00    0.00    0.00    0.00    0.00     0.00    0.00    0.00    0.00
   29    0.00    0.00    0.01    0.00    0.00    0.00  176.73    0.68    2.32    0.01    0.00    0.00    0.00    0.00    0.00     0.00    0.00    0.00    0.00
   30    0.00    0.00    0.01    0.00    0.00    0.00  176.21    0.52    1.87    0.01    0.00    0.00    0.00    0.00    0.00     0.00    0.00    0.00    0.00
   31    4.33    0.14    0.01    0.00    0.00    0.00  177.81    2.59    3.94    0.15    0.00    0.00    0.00    0.00    0.00     0.00    0.00    0.00    0.00
    1   40.67    1.44    0.50    0.00    0.00    0.00  177.81   38.80   72.58    1.95    0.01    0.02    0.01    0.00    0.00     0.03    0.00    0.00    0.00
   32    0.03    0.00    0.01    0.00    0.00    0.00  177.11    0.72    1.98    0.01    0.00    0.00    0.00    0.00    0.00     0.00    0.00    0.00    0.00
   33    0.00    0.00    0.01    0.00    0.00    0.00  176.46    0.65    1.92    0.01    0.00    0.00    0.00    0.00    0.00     0.00    0.00    0.00    0.00
   34    1.15    0.00    0.01    0.00    0.00    0.00  176.82    0.78    1.42    0.01    0.00    0.00    0.00    0.00    0.00     0.00    0.00    0.00    0.00
   35    0.00    0.00    0.01    0.00    0.00    0.00  175.72    1.10    2.66    0.01    0.00    0.00    0.00    0.00    0.00     0.00    0.00    0.00    0.00
   36   11.06    0.66    0.01    0.00    0.00    0.00  183.45    2.62    2.88    0.67    0.01    0.01    0.00    0.00    0.00     0.02    0.00    0.00    0.00
   37    0.00    0.00    0.01    0.00    0.00    0.00  182.00    1.44    2.87    0.01    0.00    0.00    0.00    0.00    0.00     0.00    0.00    0.00    0.00
   38    0.03    0.00    0.01    0.00    0.00    0.00  180.46    1.57    3.58    0.01    0.00    0.00    0.00    0.00    0.00     0.00    0.00    0.00    0.00
   39    0.00    0.00    0.01    0.00    0.00    0.00  179.48    0.98    2.64    0.01    0.00    0.00    0.00    0.00    0.00     0.00    0.00    0.00    0.00
   40    0.00    0.00    0.01    0.00    0.00    0.00  178.58    0.90    2.68    0.01    0.00    0.00    0.00    0.00    0.00     0.00    0.00    0.00    0.00
   41    0.00    0.00    0.01    0.00    0.00    0.00  177.83    0.74    2.38    0.01    0.00    0.00    0.00    0.00    0.00     0.00    0.00    0.00    0.00
   42    0.00    0.00    0.01    0.00    0.00    0.00  177.27    0.57    1.91    0.01    0.00    0.00    0.00    0.00    0.00     0.00    0.00    0.00    0.00
   43    6.23    0.24    0.01    0.00    0.00    0.00  181.62    1.62    1.87    0.25    0.00    0.00    0.00    0.00    0.00     0.01    0.00    0.00    0.00
   44    0.00    0.00    0.01    0.00    0.00    0.00  180.40    1.22    2.42    0.01    0.00    0.00    0.00    0.00    0.00     0.00    0.00    0.00    0.00
   45    0.00    0.00    0.01    0.00    0.00    0.00  179.14    1.26    2.93    0.01    0.00    0.00    0.00    0.00    0.00     0.00    0.00    0.00    0.00
   46    0.00    0.00    0.01    0.00    0.00    0.00  177.74    1.39    3.69    0.01    0.00    0.00    0.00    0.00    0.00     0.00    0.00    0.00    0.00
   47    0.00    0.00    0.01    0.00    0.00    0.00  176.47    1.27    4.06    0.01    0.00    0.00    0.00    0.00    0.00     0.00    0.00    0.00    0.00
   48    0.00    0.00    0.01    0.00    0.00    0.00  174.87    1.60    5.75    0.01    0.00    0.00    0.00    0.00    0.00     0.00    0.00    0.00    0.00
   49    0.00    0.00    0.01    0.00    0.00    0.00  174.19    0.68    2.75    0.01    0.00    0.00    0.00    0.00    0.00     0.00    0.00    0.00    0.00
   50    1.21    0.00    0.01    0.00    0.00    0.00  174.01    0.18    1.43    0.01    0.00    0.00    0.00    0.00    0.00     0.00    0.00    0.00    0.00
   51    0.00    0.00    0.01    0.00    0.00    0.00  174.19    1.03    2.11    0.01    0.00    0.00    0.00    0.00    0.00     0.00    0.00    0.00    0.00
   52    0.00    0.00    0.01    0.00    0.00    0.00  173.24    0.95    2.86    0.01    0.00    0.00    0.00    0.00    0.00     0.00    0.00    0.00    0.00
   53    0.00    0.00    0.01    0.00    0.00    0.00  172.52    0.72    2.57    0.01    0.00    0.00    0.00    0.00    0.00     0.00    0.00    0.00    0.00
   54   10.60    0.61    0.01    0.00    0.00    0.00  180.42    2.04    2.35    0.62    0.01    0.01    0.00    0.00    0.00     0.02    0.00    0.00    0.00
   55    1.50    0.01    0.01    0.00    0.00    0.00  179.02    2.89    4.06    0.02    0.00    0.00    0.00    0.00    0.00     0.00    0.00    0.00    0.00
   56    0.00    0.00    0.01    0.00    0.00    0.00  177.45    1.56    3.81    0.01    0.00    0.00    0.00    0.00    0.00     0.00    0.00    0.00    0.00
   57    0.00    0.00    0.01    0.00    0.00    0.00  175.83    1.62    4.92    0.01    0.00    0.00    0.00    0.00    0.00     0.00    0.00    0.00    0.00
   58    0.00    0.00    0.01    0.00    0.00    0.00  174.82    1.01    3.54    0.01    0.00    0.00    0.00    0.00    0.00     0.00    0.00    0.00    0.00
   59    0.00    0.00    0.01    0.00    0.00    0.00  173.36    1.45    5.52    0.01    0.00    0.00    0.00    0.00    0.00     0.00    0.00    0.00    0.00
    2   31.81    1.52    0.27    0.00    0.00    0.00  173.36   34.60   83.57    1.79    0.03    0.02    0.01    0.00    0.00     0.05    0.00    0.01    0.00
   60    0.00    0.00    0.01    0.00    0.00    0.00  171.91    1.45    6.12    0.01    0.00    0.00    0.00    0.00    0.00     0.00    0.00    0.00    0.00
   61    0.00    0.00    0.01    0.00    0.00    0.00  170.60    1.32    6.13    0.01    0.00    0.00    0.00    0.00    0.00     0.00    0.00    0.00    0.00
   62    0.00    0.00    0.01    0.00    0.00    0.00  169.28    1.31    6.68    0.01    0.00    0.00    0.00    0.00    0.00     0.00    0.00    0.00    0.00
   63    0.00    0.00    0.01    0.00    0.00    0.00  168.37    0.92    5.09    0.01    0.00    0.00    0.00    0.00    0.00     0.00    0.00    0.00    0.00
   64    0.00    0.00    0.01    0.00    0.00    0.00  167.69    0.68    4.00    0.01    0.00    0.00    0.00    0.00    0.00     0.00    0.00    0.00    0.00
   65    0.00    0.00    0.01    0.00    0.00    0.00  167.11    0.58    3.56    0.01    0.00    0.00    0.00    0.00    0.00     0.00    0.00    0.00    0.00
   66    1.55    0.00    0.01    0.00    0.00    0.00  166.91    1.75    3.36    0.01    0.00    0.00    0.00    0.00    0.00     0.00    0.00    0.00    0.00
   67    0.00    0.00    0.01    0.00    0.00    0.00  166.14    0.77    3.60    0.01    0.00    0.00    0.00    0.00    0.00     0.00    0.00    0.00    0.00
   68    0.00    0.00    0.01    0.00    0.00    0.00  165.11    1.03    6.54    0.01    0.00    0.00    0.00    0.00    0.00     0.00    0.00    0.00    0.00
   69    0.00    0.00    0.01    0.00    0.00    0.00  164.03    1.08    7.62    0.01    0.00    0.00    0.00    0.00    0.00     0.00    0.00    0.00    0.00
   70    0.00    0.00    0.01    0.00    0.00    0.00  163.41    0.62    4.67    0.01    0.00    0.00    0.00    0.00    0.00     0.00    0.00    0.00    0.00
   71    0.05    0.00    0.01    0.00    0.00    0.00  162.92    0.55    4.00    0.01    0.00    0.00    0.00    0.00    0.00     0.00    0.00    0.00    0.00
   72    0.00    0.00    0.00    0.00    0.00    0.00  162.10    0.83    6.62    0.00    0.00    0.00    0.00    0.00    0.00     0.00    0.00    0.00    0.00
   73    0.00    0.00    0.00    0.00    0.00    0.00  161.06    1.03    8.76    0.00    0.00    0.00    0.00    0.00    0.00     0.00    0.00    0.00    0.00
   74    2.33    0.03    0.01    0.00    0.00    0.00  161.34    2.02    6.26    0.03    0.00    0.00    0.00    0.00    0.00     0.00    0.00    0.00    0.00
   75    0.00    0.00    0.00    0.00    0.00    0.00  160.60    0.74    4.33    0.00    0.00    0.00    0.00    0.00    0.00     0.00    0.00    0.00    0.00
   76    0.00    0.00    0.00    0.00    0.00    0.00  159.97    0.63    5.24    0.00    0.00    0.00    0.00    0.00    0.00     0.00    0.00    0.00    0.00
   77    0.00    0.00    0.00    0.00    0.00    0.00  159.37    0.60    5.55    0.00    0.00    0.00    0.00    0.00    0.00     0.00    0.00    0.00    0.00
   78    0.00    0.00    0.00    0.00    0.00    0.00  158.79    0.58    5.60    0.00    0.00    0.00    0.00    0.00    0.00     0.00    0.00    0.00    0.00
   79    0.00    0.00    0.00    0.00    0.00    0.00  158.39    0.40    3.99    0.00    0.00    0.00    0.00    0.00    0.00     0.00    0.00    0.00    0.00
   80   13.23    0.80    0.01    0.00    0.00    0.00  169.83    0.93    1.35    0.80    0.02    0.02    0.00    0.00    0.00     0.04    0.00    0.01    0.00
   81    2.61    0.03    0.01    0.00    0.00    0.00  170.23    2.16    3.52    0.04    0.00    0.00    0.00    0.00    0.00     0.00    0.00    0.00    0.00
   82    0.00    0.00    0.01    0.00    0.00    0.00  169.16    1.07    3.62    0.01    0.00    0.00    0.00    0.00    0.00     0.00    0.00    0.00    0.00
   83    0.00    0.00    0.01    0.00    0.00    0.00  168.41    0.75    3.10    0.01    0.00    0.00    0.00    0.00    0.00     0.00    0.00    0.00    0.00
   84    0.00    0.00    0.01    0.00    0.00    0.00  167.66    0.75    3.54    0.01    0.00    0.00    0.00    0.00    0.00     0.00    0.00    0.00    0.00
   85    2.77    0.05    0.01    0.00    0.00    0.00  168.31    2.06    3.59    0.05    0.00    0.00    0.00    0.00    0.00     0.00    0.00    0.00    0.00
   86    0.00    0.00    0.01    0.00    0.00    0.00  167.25    1.06    3.97    0.01    0.00    0.00    0.00    0.00    0.00     0.00    0.00    0.00    0.00
   87    0.00    0.00    0.01    0.00    0.00    0.00  166.24    1.01    4.92    0.01    0.00    0.00    0.00    0.00    0.00     0.00    0.00    0.00    0.00
   88    0.00    0.00    0.01    0.00    0.00    0.00  165.47    0.78    4.23    0.01    0.00    0.00    0.00    0.00    0.00     0.00    0.00    0.00    0.00
   89    0.00    0.00    0.00    0.00    0.00    0.00  164.71    0.76    4.39    0.00    0.00    0.00    0.00    0.00    0.00     0.00    0.00    0.00    0.00
   90    0.00    0.00    0.00    0.00    0.00    0.00  163.76    0.95    5.79    0.00    0.00    0.00    0.00    0.00    0.00     0.00    0.00    0.00    0.00
    3   22.54    0.91    0.18    0.00    0.00    0.00  163.76   31.15  149.74    1.09    0.02    0.03    0.00    0.00    0.00     0.05    0.00    0.01    0.00
   91    1.67    0.01    0.00    0.00    0.00    0.00  163.30    2.12    6.02    0.01    0.00    0.00    0.00    0.00    0.00     0.00    0.00    0.00    0.00
   92    0.00    0.00    0.00    0.00    0.00    0.00  161.83    1.47    6.72    0.00    0.00    0.00    0.00    0.00    0.37     0.00    0.00    0.00    0.00
   93    3.38    0.10    0.01    0.00    0.00    0.00  162.69    2.42    5.02    0.11    0.01    0.00    0.00    0.00    0.57     0.01    0.00    0.00    0.00
   94   11.78    0.73    0.01    0.00    0.00    0.00  170.15    3.53    6.31    0.74    0.02    0.00    0.00    0.00    0.64     0.04    0.00    0.01    0.00
   95    0.00    0.00    0.01    0.00    0.00    0.00  167.19    2.96    8.30    0.01    0.00    0.00    0.00    0.00    0.72     0.00    0.00    0.00    0.00
   96    0.00    0.00    0.01    0.00    0.00    0.00  165.20    2.00    5.53    0.01    0.00    0.00    0.00    0.00    0.87     0.00    0.00    0.00    0.00
   97    0.00    0.00    0.01    0.00    0.00    0.00  162.70    2.50    8.67    0.01    0.00    0.00    0.00    0.00    0.51     0.00    0.00    0.00    0.00
[...]
  347   31.74    4.43    0.07    0.03    2.98    0.00  268.71    2.49    2.90    4.52    0.01    0.01    0.00    0.10    0.00     0.03    0.00    0.00    0.00
  348    0.00    0.00    0.05    0.04    1.66    0.00  266.10    0.92    1.61    0.09    0.00    0.00    0.00    0.05    0.00     0.00    0.00    0.00    0.00
  349    0.00    0.00    0.04    0.04    0.90    0.00  264.53    0.65    1.11    0.09    0.00    0.00    0.00    0.02    0.00     0.00    0.00    0.00    0.00
  350    0.00    0.00    0.03    0.05    0.49    0.00  263.46    0.57    0.96    0.09    0.00    0.00    0.00    0.01    0.00     0.00    0.00    0.00    0.00
  351    0.00    0.00    0.03    0.06    0.26    0.00  262.64    0.55    1.05    0.09    0.00    0.00    0.00    0.01    0.00     0.00    0.00    0.00    0.00
  352    0.07    0.00    0.03    0.07    0.13    0.00  262.17    0.40    0.72    0.09    0.00    0.00    0.00    0.00    0.00     0.00    0.00    0.00    0.00
  353    0.00    0.00    0.02    0.07    0.06    0.00  261.63    0.48    0.87    0.10    0.00    0.00    0.00    0.00    0.00     0.00    0.00    0.00    0.00
  354    0.00    0.00    0.02    0.08    0.02    0.00  260.90    0.70    1.42    0.10    0.00    0.00    0.00    0.00    0.00     0.00    0.00    0.00    0.00
  355    0.00    0.00    0.02    0.08    0.00    0.00  260.30    0.60    1.24    0.10    0.00    0.00    0.00    0.00    0.00     0.00    0.00    0.00    0.00
  356   17.99    1.64    0.04    0.09    1.69    0.00  273.17    1.60    1.86    1.78    0.01    0.02    0.00    0.08    0.00     0.01    0.00    0.00    0.00
  357    8.57    0.00    0.04    0.10    1.15    0.00  271.13    0.88    2.28    0.14    0.00    0.00    0.00    0.07    0.00     0.00    0.00    0.00    0.00
  358    0.00    0.11    0.04    0.11    1.05    0.00  273.59    0.45    0.88    0.25    0.00    0.00    0.00    0.06    0.00     0.00    0.00    0.00    0.00
  359    0.00    0.17    0.04    0.12    1.47    0.00  275.17    1.16    1.40    0.33    0.00    0.00    0.00    0.09    0.00     0.00    0.00    0.00    0.00
  360    4.83    0.18    0.04    0.13    1.64    0.00  276.00    2.10    2.40    0.35    0.00    0.00    0.00    0.10    0.00     0.00    0.00    0.00    0.00
  361    0.88    0.00    0.04    0.14    0.92    0.00  274.59    1.36    1.69    0.18    0.00    0.00    0.00    0.06    0.00     0.00    0.00    0.00    0.00
  362    0.00    0.00    0.03    0.15    0.51    0.00  273.46    0.61    0.87    0.18    0.00    0.00    0.00    0.03    0.06     0.00    0.00    0.00    0.00
  363    0.00    0.00    0.03    0.16    0.27    0.00  272.33    0.86    1.40    0.19    0.00    0.00    0.00    0.02    0.07     0.00    0.00    0.00    0.00
  364    2.72    0.05    0.03    0.17    0.13    0.00  272.61    2.26    2.59    0.25    0.00    0.00    0.00    0.01    0.03     0.00    0.00    0.00    0.00
  365    0.00    0.00    0.02    0.18    0.05    0.00  270.62    1.94    3.61    0.21    0.00    0.00    0.00    0.00    0.07     0.00    0.00    0.00    0.00
   12   94.66    8.31    0.90    2.08   16.86    0.00  270.62   29.91   47.41   11.30    0.02    0.05    0.02    0.75    0.23     0.06    0.00    0.01    0.00

 2008 1038.30   83.55    7.60   11.48   29.34    0.00  270.62  848.58 1509.42  102.63    0.42    2.40    0.14    1.43  234.43     1.07    0.02    0.16    0.00
1
    SWAT Nov 14 2012    VER 2012/Rev 582                                            

    General Input/Output section (file.cio):                                        
    2/7/2013 12:00:00 AM ARCGIS-SWAT interface AV                                   
                                                                                    
    FINAL VALUES

1
    SWAT Nov 14 2012    VER 2012/Rev 582                                            

    General Input/Output section (file.cio):                                        
    2/7/2013 12:00:00 AM ARCGIS-SWAT interface AV                                   
                                                                                    
                                            Average Plant Values (kg/ha)

  HRU       1 SUB   1 BERM  Yld = 17813.1 BIOM =  25421.7
  HRU       2 SUB   1 BERM  Yld = 17606.2 BIOM =  25118.0
  HRU       3 SUB   1 BERM  Yld = 21159.9 BIOM =  30346.5
  HRU       4 SUB   1 BERM  Yld = 21134.0 BIOM =  30309.1
  HRU       5 SUB   1 BERM  Yld = 22185.1 BIOM =  31827.1
  HRU       6 SUB   1 BERM  Yld = 22065.5 BIOM =  31654.8
  HRU       7 SUB   1 BERM  Yld = 14895.9 BIOM =  21104.0
  HRU       8 SUB   1 BERM  Yld = 15140.4 BIOM =  21466.7
  HRU       9 SUB   1 BERM  Yld = 15051.4 BIOM =  21335.9
  HRU      10 SUB   1 BERM  Yld = 16417.7 BIOM =  23362.6
  HRU      11 SUB   1 BERM  Yld = 16452.4 BIOM =  23415.1
  HRU      12 SUB   1 BERM  Yld = 17285.9 BIOM =  24689.0
  HRU      13 SUB   1 BERM  Yld = 17180.0 BIOM =  24530.5
  HRU      14 SUB   2 BERM  Yld = 21698.5 BIOM =  31127.8
  HRU      15 SUB   2 BERM  Yld = 21820.7 BIOM =  31304.0
  HRU      16 SUB   2 BERM  Yld = 15991.7 BIOM =  22692.8
  HRU      17 SUB   2 BERM  Yld = 15966.1 BIOM =  22653.2
  HRU      18 SUB   2 BERM  Yld = 16833.2 BIOM =  23990.3
  HRU      19 SUB   2 BERM  Yld = 16742.5 BIOM =  23851.5
  HRU      20 SUB   2 FRSD  Yld =  2592.6 BIOM =   9684.9
  HRU      21 SUB   2 FRSD  Yld =  2592.6 BIOM =   9684.9
  HRU      22 SUB   3 BERM  Yld = 22060.3 BIOM =  31610.4
  HRU      23 SUB   3 BERM  Yld = 22093.9 BIOM =  31660.2
  HRU      24 SUB   3 BERM  Yld = 19113.8 BIOM =  27242.4
  HRU      25 SUB   3 BERM  Yld = 19225.2 BIOM =  27407.7
  HRU      26 SUB   3 FRSD  Yld =  2230.9 BIOM =   9999.8
  HRU      27 SUB   3 FRSD  Yld =  2229.3 BIOM =   9994.3
  HRU      28 SUB   3 FRSD  Yld =  2229.0 BIOM =   9993.3
  HRU      29 SUB   3 FRSE  Yld =  2617.0 BIOM =  11781.5
  HRU      30 SUB   3 FRSE  Yld =  2618.9 BIOM =  11788.9
  HRU      31 SUB   4 BERM  Yld = 21927.6 BIOM =  31423.1
  HRU      32 SUB   4 BERM  Yld = 21965.9 BIOM =  31479.4
  HRU      33 SUB   4 FRSD  Yld =  2207.3 BIOM =   9918.0
  HRU      34 SUB   4 FRSD  Yld =  2206.1 BIOM =   9913.8
  HRU      35 SUB   4 FRSD  Yld =  2205.6 BIOM =   9912.0
  HRU      36 SUB   4 FRSE  Yld =  2591.3 BIOM =  11692.5
  HRU      37 SUB   4 FRSE  Yld =  2593.1 BIOM =  11699.3
  HRU      38 SUB   4 HAY   Yld =  1964.1 BIOM =  38057.4
  HRU      39 SUB   4 HAY   Yld =  1953.7 BIOM =  38102.4

    HRU STATISTICS

                AVE ANNUAL VALUES

   HRU  SUB  SOIL       AREAkm2    CN     AWCmm   USLE_LS  IRRmm  AUTONkh AUTOPkh  MIXEF PRECmm SURQGENmm   GWQmm    ETmm   SEDth  NO3kgh  ORGNkgh BIOMth   YLDth  SURQmm
      1   1   MAYODAN    .197E+01   63.29  165.86    0.56    0.00  247.88    0.00    0.20  957.88   93.31   69.86  756.91    0.26    2.83    0.78   25.44   17.83   93.31
      2   1   MAYODAN    .154E+01   63.29  165.86    1.15    0.00  248.41    0.00    0.20  957.88   92.19   77.73  751.62    0.54    3.34    1.45   25.14   17.62   92.19
      3   1   HERNDON    .300E+01   63.29  288.29    0.58    0.00  245.98    0.00    0.20  957.88   73.50   11.55  828.02    0.35    2.76    0.67   30.37   21.17   73.50
      4   1   HERNDON    .419E+01   63.29  288.29    1.25    0.00  246.12    0.00    0.20  957.88   73.41   12.63  826.92    0.81    2.81    1.29   30.33   21.15   73.41
      5   1   HIWASSEE   .325E+01   63.29  307.34    0.58    0.00  249.12    0.00    0.20  957.88   69.09   13.75  830.69    0.24    2.75    0.68   31.85   22.20   69.09
      6   1   HIWASSEE   .499E+01   63.29  307.34    1.28    0.00  249.45    0.00    0.20  957.88   68.95   17.12  826.92    0.56    2.91    1.40   31.68   22.08   68.95
      7   1   MAYODAN    .452E+00   73.82  165.86    1.15    0.00  247.73    0.00    0.20  957.88  231.24   19.87  671.99    1.33    6.50    3.63   21.12   14.91  231.24
      8   1   MAYODAN    .396E+00   73.82  165.86    0.18    0.00  246.24    0.00    0.20  957.88  233.28    8.79  679.39    0.23    5.87    1.22   21.48   15.15  233.28
      9   1   MAYODAN    .869E+00   73.82  165.86    0.56    0.00  246.63    0.00    0.20  957.88  232.70   11.96  677.30    0.70    5.92    2.19   21.35   15.06  232.70
     10   1   HERNDON    .163E+01   73.82  288.29    1.25    0.00  251.37    0.00    0.20  957.88  205.64    1.43  705.83    2.10    6.54    3.03   23.38   16.43  205.64
     11   1   HERNDON    .126E+01   73.82  288.29    0.58    0.00  251.13    0.00    0.20  957.88  205.70    0.48  706.62    0.95    6.53    1.85   23.43   16.46  205.70
     12   1   HIWASSEE   .877E+00   73.82  307.34    0.56    0.00  253.02    0.00    0.20  957.88  200.57    1.57  706.77    0.56    6.47    1.84   24.71   17.30  200.57
     13   1   HIWASSEE   .975E+00   73.82  307.34    1.20    0.00  253.52    0.00    0.20  957.88  200.52    4.64  704.13    1.21    6.61    3.08   24.55   17.19  200.52
     14   2   HIWASSEE   .101E+02   63.29  307.34    1.25    0.00  248.65    0.00    0.20  934.26   65.25   13.31  819.06    0.46    2.80    1.21   31.15   21.71   65.25
     15   2   HIWASSEE   .690E+01   63.29  307.34    0.58    0.00  248.35    0.00    0.20  934.26   65.29   10.10  822.69    0.20    2.65    0.59   31.33   21.84   65.29
     16   2   HERNDON    .407E+00   73.82  288.29    0.58    0.00  250.87    0.00    0.20  934.26  197.87    0.47  696.84    0.74    6.45    1.88   22.71   16.00  197.87
     17   2   HERNDON    .564E+00   73.82  288.29    1.28    0.00  251.11    0.00    0.20  934.26  197.83    1.41  696.04    1.67    6.45    2.89   22.67   15.98  197.83
     18   2   HIWASSEE   .283E+01   73.82  307.34    0.58    0.00  252.80    0.00    0.20  934.26  193.92    1.57  696.43    0.60    6.17    1.73   24.01   16.84  193.92
     19   2   HIWASSEE   .341E+01   73.82  307.34    1.25    0.00  253.28    0.00    0.20  934.26  193.90    4.64  693.72    1.31    6.30    3.07   23.87   16.75  193.90
     20   2   HIWASSEE   .328E+01   66.00  307.34    1.33    0.00    0.00    0.00    0.20  934.26   24.76   68.03  806.70    0.02    0.11    0.05   10.74    1.92   24.76
     21   2   HIWASSEE   .270E+01   66.00  307.34    1.96    0.00    0.00    0.00    0.20  934.26   21.49   78.93  803.61    0.02    0.26    0.06   10.74    1.92   21.49
     22   3   HIWASSEE   .231E+01   63.29  307.34    1.15    0.00  251.99    0.00    0.20  942.17   69.55   40.92  848.56    0.39    3.09    1.05   31.63   22.08   69.55
     23   3   HIWASSEE   .286E+01   63.29  307.34    0.58    0.00  251.76    0.00    0.20  942.17   69.79   39.16  849.93    0.20    2.94    0.58   31.68   22.11   69.79
     24   3   HIWASSEE   .707E+00   73.82  307.34    1.18    0.00  254.42    0.00    0.20  942.17  199.97    4.60  755.79    0.90    7.22    2.52   27.26   19.13  199.97
     25   3   HIWASSEE   .101E+01   73.82  307.34    0.58    0.00  253.95    0.00    0.20  942.17  200.08    1.64  758.90    0.47    7.04    1.57   27.43   19.24  200.08
     26   3   HIWASSEE   .123E+01   66.00  307.34    2.05    0.00    0.00    0.00    0.20  942.17   27.61  104.03  808.07    0.03    0.22    0.08   11.39    0.00   27.61
     27   3   HIWASSEE   .161E+01   66.00  307.34    1.31    0.00    0.00    0.00    0.20  942.17   32.57   91.97  811.11    0.02    0.11    0.06   11.38    0.00   32.57
     28   3   HIWASSEE   .123E+01   66.00  307.34    0.58    0.00    0.00    0.00    0.20  942.17   33.50   89.81  811.69    0.01    0.09    0.03   11.38    0.00   33.50
     29   3   HIWASSEE   .161E+01   55.00  307.34    0.56    0.00    0.00    0.00    0.20  942.17   14.61  110.85  806.12    0.00    0.04    0.01   13.36    0.00   14.61
     30   3   HIWASSEE   .128E+01   55.00  307.34    1.15    0.00    0.00    0.00    0.20  942.17   14.17  112.41  805.58    0.01    0.06    0.02   13.37    0.00   14.17
     31   4   HIWASSEE   .294E+01   63.29  307.34    1.25    0.00  251.67    0.00    0.20  920.58   66.14   37.37  837.51    0.40    3.00    1.05   31.44   21.94   66.14
     32   4   HIWASSEE   .241E+01   63.29  307.34    0.58    0.00  251.49    0.00    0.20  920.58   66.22   34.96  839.75    0.18    2.84    0.53   31.50   21.98   66.22
     33   4   HIWASSEE   .282E+01   66.00  307.34    1.89    0.00    0.00    0.00    0.20  920.58   20.94   97.91  802.15    0.02    0.20    0.06   11.27    0.00   20.94
     34   4   HIWASSEE   .427E+01   66.00  307.34    1.33    0.00    0.00    0.00    0.20  920.58   24.37   87.61  805.04    0.02    0.10    0.05   11.26    0.00   24.37
     35   4   HIWASSEE   .210E+01   66.00  307.34    0.60    0.00    0.00    0.00    0.20  920.58   25.20   85.56  805.60    0.01    0.08    0.02   11.26    0.00   25.20
     36   4   HIWASSEE   .234E+01   55.00  307.34    0.60    0.00    0.00    0.00    0.20  920.58    8.22  105.00  799.95    0.00    0.03    0.01   13.23    0.00    8.22
     37   4   HIWASSEE   .439E+01   55.00  307.34    1.28    0.00    0.00    0.00    0.20  920.58    7.66  106.72  799.41    0.01    0.04    0.02   13.24    0.00    7.66
     38   4   HIWASSEE   .178E+01   59.00  307.34    1.20    0.00  164.37   23.48    0.20  920.58    2.11   41.74  901.75    0.00    1.43    0.04   27.71    0.00    2.11
     39   4   HIWASSEE   .172E+01   59.00  307.34    0.58    0.00  165.70   23.67    0.20  920.58    2.18   39.82  903.31    0.00    0.59    0.02   27.74    0.00    2.18



                AVE MONTHLY BASIN VALUES
                   SNOW                      WATER               SED
  MON     RAIN     FALL   SURF Q    LAT Q    YIELD       ET    YIELD      PET
          (MM)     (MM)     (MM)     (MM)     (MM)     (MM)   (T/HA)     (MM)
    1    47.42     4.50     2.83     0.68     9.66    32.51     0.02    66.41
    2    49.32     0.53     2.72     0.40     8.64    36.78     0.03    81.23
    3    68.38     0.00     5.65     0.55    11.90    48.66     0.11   134.78
    4    87.17     0.00     6.01     0.52    13.11    68.86     0.12   150.82
    5    65.99     0.00     3.79     0.51     8.68   104.77     0.01   174.61
    6   114.26     0.00    11.02     0.54    13.27   143.77     0.01   185.63
    7    89.12     0.00     6.07     0.52     8.07   146.77     0.01   196.32
    8    63.33     0.00     4.13     0.38     5.15    79.90     0.00   177.15
    9   101.08     0.00    10.17     0.67    11.04    54.81     0.01   142.22
   10    85.62     0.00     6.56     0.57     7.32    39.30     0.01    95.02
   11    91.74     0.02     8.08     0.71     9.32    30.62     0.02    70.41
   12    93.03     2.42     8.09     0.84    11.98    29.15     0.03    53.93

     AVE ANNUAL BASIN STRESS DAYS
               WATER STRESS DAYS =    12.24
               TEMPERATURE STRESS DAYS =    26.22
               NITROGEN STRESS DAYS =    13.00
               PHOSPHORUS STRESS DAYS =     1.84
               AERATION STRESS DAYS =     0.00
1
    SWAT Nov 14 2012    VER 2012/Rev 582                                            

    General Input/Output section (file.cio):                                        
    2/7/2013 12:00:00 AM ARCGIS-SWAT interface AV                                   
                                                                                    
         AVE ANNUAL BASIN VALUES

              PRECIP =    955.1 MM
              SNOW FALL =    7.45 MM
              SNOW MELT =     7.45 MM
              SUBLIMATION =     0.00 MM
              SURFACE RUNOFF Q =    75.03 MM
              LATERAL SOIL Q =    6.87 MM
              TILE Q =     0.00 MM
              GROUNDWATER (SHAL AQ) Q =    36.00 MM
              GROUNDWATER (DEEP AQ) Q =     0.00 MM
              REVAP (SHAL AQ => SOIL/PLANTS) =    3.91 MM
              DEEP AQ RECHARGE =     2.09 MM
              TOTAL AQ RECHARGE =   41.84 MM
              TOTAL WATER YLD =   117.91 MM
              PERCOLATION OUT OF SOIL =   41.20 MM
              ET =    815.3 MM
              PET =   1527.0MM
              TRANSMISSION LOSSES =     0.00 MM
              SEPTIC INFLOW =       0.00 MM
              TOTAL SEDIMENT LOADING =     0.378 T/HA
              TILE FROM IMPOUNDED WATER =     0.000 (MM)
              EVAPORATION FROM IMPOUNDED WATER =     0.000 (MM)
              SEEPAGE INTO SOIL FROM IMPOUNDED WATER =    0.000 (MM)
              OVERFLOW FROM IMPOUNDED WATER =    0.000 (MM)
1
    SWAT Nov 14 2012    VER 2012/Rev 582                                            

    General Input/Output section (file.cio):                                        
    2/7/2013 12:00:00 AM ARCGIS-SWAT interface AV                                   
                                                                                    
              AVE ANNUAL BASIN VALUES


              NUTRIENTS
                   ORGANIC N =     0.901 (KG/HA)
                   ORGANIC P =     0.134 (KG/HA)
                   NO3 YIELD (SQ) =     2.409 (KG/HA)
                   NO3 YIELD (LAT) =    0.158 (KG/HA)
                   NO3 YIELD (TILE) =    0.000 (KG/HA)
                   SOL P YIELD =    0.023 (KG/HA)
                   NO3 LEACHED =     4.862 (KG/HA)
                   P LEACHED =     0.022 (KG/HA)
                   N UPTAKE =   231.396 (KG/HA)
                   P UPTAKE =   45.241 (KG/HA)
                   NO3 YIELD (GWQ) =     1.529 (KG/HA)
                   ACTIVE TO SOLUTION P FLOW =       -33.750 (KG/HA)
                   ACTIVE TO STABLE P FLOW =       -30.497 (KG/HA)
                   N FERTILIZER APPLIED =   173.197 (KG/HA)
                   P FERTILIZER APPLIED =     0.000 (KG/HA)
                   N FIXATION =     0.000 (KG/HA)
                   DENITRIFICATION =     0.000 (KG/HA)
                   HUMUS MIN ON ACTIVE ORG N =     4.655 (KG/HA)
                   ACTIVE TO STABLE ORG N =     3.772 (KG/HA)
                   HUMUS MIN ON ACTIVE ORG P =    0.815 (KG/HA)
                   MIN FROM FRESH ORG N =   64.605 (KG/HA)
                   MIN FROM FRESH ORG P =   11.171 (KG/HA)
                   NO3 IN RAINFALL =     9.551 (KG/HA)
                   INITIAL NO3 IN SOIL =      50.147 (KG/HA)
                   FINAL NO3 IN SOIL =        29.987 (KG/HA)
                   INITIAL ORG N IN SOIL =    4556.881 (KG/HA)
                   FINAL ORG N IN SOIL =      4716.920 (KG/HA)
                   INITIAL MIN P IN SOIL =    3817.434 (KG/HA)
                   FINAL MIN P IN SOIL =      3598.931 (KG/HA)
                   INITIAL ORG P IN SOIL =     558.218 (KG/HA)
                   FINAL ORG P IN SOIL =     587.247 (KG/HA)
                   NO3 IN FERT =   173.197 (KG/HA)
                   AMMONIA IN FERT =     0.000 (KG/HA)
                   ORG N IN FERT =     0.000 (KG/HA)
                   MINERAL P IN FERT =     0.892 (KG/HA)
                   ORG P IN FERT =     0.000 (KG/HA)
                   N REMOVED IN YIELD =   160.010 (KG/HA)
                   P REMOVED IN YIELD =    32.617 (KG/HA)
                   AMMONIA VOLATILIZATION =     0.000 (KG/HA)
                   AMMONIA NITRIFICATION =      0.000 (KG/HA)
                   NO3 EVAP-LAYER 2 TO 1 =   24.129

                   DIE-GRO P Q =       0.0 (No/HA)
                   DIE-GRO LP Q =       0.0 (No/HA)
                   DIE-GRO P SED =      0.0 (No/HA)
                   DIE-GRO LP SED =      0.0 (No/HA)
                   BACT P RUNOFF =      0.0 (No/HA)
                   BACT LP RUNOFF =      0.0 (No/HA)
                   BACT P SEDIMENT =      0.0 (No/HA)
                   BACT LP SEDIMENT =      0.0 (No/HA)
                   BACT P INCORP =      0.0 (No/HA)
                   BACT LP INCORP =      0.0 (No/HA)

                   NITRATE SEPTIC =         0.00 (kg/ha)
                   AMMONIA SEPTIC =         0.00 (kg/ha)
                   ORG N SEPTIC =         0.00 (kg/ha)
                   FRESH ORGN SEPTIC =         0.00 (kg/ha)
                   ORG P SEPTIC =         0.00 (kg/ha)
                   FRESH ORGP SEPTIC =         0.00 (kg/ha)
                   SOL P SEPTIC =         0.00 (kg/ha)
                   BOD SEPTIC =         0.00 (kg/ha)
